
---------- Begin Simulation Statistics ----------
sim_seconds                                  0.000060                       # Number of seconds simulated
sim_ticks                                    59712015                       # Number of ticks simulated
final_tick                                   59712015                       # Number of ticks from beginning of simulation (restored from checkpoints and never reset)
sim_freq                                 1000000000000                       # Frequency of simulated ticks
host_inst_rate                                 446473                       # Simulator instruction rate (inst/s)
host_op_rate                                   509403                       # Simulator op (including micro ops) rate (op/s)
host_tick_rate                              277644859                       # Simulator tick rate (ticks/s)
host_mem_usage                                 673560                       # Number of bytes of host memory used
host_seconds                                     0.22                       # Real time elapsed on the host
sim_insts                                       96017                       # Number of instructions simulated
sim_ops                                        109553                       # Number of ops (including micro ops) simulated
system.clk_domain.voltage_domain.voltage            1                       # Voltage in Volts
system.clk_domain.clock                           435                       # Clock period in ticks
system.mem_ctrl.pwrStateResidencyTicks::UNDEFINED     59712015                       # Cumulative time (in ticks) in various power states
system.mem_ctrl.bytes_read::.cpu.inst           20736                       # Number of bytes read from this memory
system.mem_ctrl.bytes_read::.cpu.data           11136                       # Number of bytes read from this memory
system.mem_ctrl.bytes_read::total               31872                       # Number of bytes read from this memory
system.mem_ctrl.bytes_inst_read::.cpu.inst        20736                       # Number of instructions bytes read from this memory
system.mem_ctrl.bytes_inst_read::total          20736                       # Number of instructions bytes read from this memory
system.mem_ctrl.num_reads::.cpu.inst              324                       # Number of read requests responded to by this memory
system.mem_ctrl.num_reads::.cpu.data              174                       # Number of read requests responded to by this memory
system.mem_ctrl.num_reads::total                  498                       # Number of read requests responded to by this memory
system.mem_ctrl.bw_read::.cpu.inst          347266794                       # Total read bandwidth from this memory (bytes/s)
system.mem_ctrl.bw_read::.cpu.data          186495130                       # Total read bandwidth from this memory (bytes/s)
system.mem_ctrl.bw_read::total              533761924                       # Total read bandwidth from this memory (bytes/s)
system.mem_ctrl.bw_inst_read::.cpu.inst     347266794                       # Instruction read bandwidth from this memory (bytes/s)
system.mem_ctrl.bw_inst_read::total         347266794                       # Instruction read bandwidth from this memory (bytes/s)
system.mem_ctrl.bw_total::.cpu.inst         347266794                       # Total bandwidth to/from this memory (bytes/s)
system.mem_ctrl.bw_total::.cpu.data         186495130                       # Total bandwidth to/from this memory (bytes/s)
system.mem_ctrl.bw_total::total             533761924                       # Total bandwidth to/from this memory (bytes/s)
system.mem_ctrl.avgPriority_.cpu.inst::samples       324.00                       # Average QoS priority value for accepted requests
system.mem_ctrl.avgPriority_.cpu.data::samples       174.00                       # Average QoS priority value for accepted requests
system.mem_ctrl.priorityMinLatency       0.000000018750                       # per QoS priority minimum request to response latency (s)
system.mem_ctrl.priorityMaxLatency       0.000001099750                       # per QoS priority maximum request to response latency (s)
system.mem_ctrl.numReadWriteTurnArounds             0                       # Number of turnarounds from READ to WRITE
system.mem_ctrl.numWriteReadTurnArounds             0                       # Number of turnarounds from WRITE to READ
system.mem_ctrl.numStayReadState                  991                       # Number of times bus staying in READ state
system.mem_ctrl.numStayWriteState                   0                       # Number of times bus staying in WRITE state
system.mem_ctrl.readReqs                          498                       # Number of read requests accepted
system.mem_ctrl.writeReqs                           0                       # Number of write requests accepted
system.mem_ctrl.readBursts                        498                       # Number of DRAM read bursts, including those serviced by the write queue
system.mem_ctrl.writeBursts                         0                       # Number of DRAM write bursts, including those merged in the write queue
system.mem_ctrl.bytesReadDRAM                   31872                       # Total number of bytes read from DRAM
system.mem_ctrl.bytesReadWrQ                        0                       # Total number of bytes read from write queue
system.mem_ctrl.bytesWritten                        0                       # Total number of bytes written to DRAM
system.mem_ctrl.bytesReadSys                    31872                       # Total read bytes from the system interface side
system.mem_ctrl.bytesWrittenSys                     0                       # Total written bytes from the system interface side
system.mem_ctrl.servicedByWrQ                       0                       # Number of DRAM read bursts serviced by the write queue
system.mem_ctrl.mergedWrBursts                      0                       # Number of DRAM write bursts merged with an existing one
system.mem_ctrl.neitherReadNorWriteReqs             0                       # Number of requests that are neither read nor write
system.mem_ctrl.perBankRdBursts::0                 75                       # Per bank write bursts
system.mem_ctrl.perBankRdBursts::1                  8                       # Per bank write bursts
system.mem_ctrl.perBankRdBursts::2                 27                       # Per bank write bursts
system.mem_ctrl.perBankRdBursts::3                 68                       # Per bank write bursts
system.mem_ctrl.perBankRdBursts::4                 64                       # Per bank write bursts
system.mem_ctrl.perBankRdBursts::5                 22                       # Per bank write bursts
system.mem_ctrl.perBankRdBursts::6                 21                       # Per bank write bursts
system.mem_ctrl.perBankRdBursts::7                 32                       # Per bank write bursts
system.mem_ctrl.perBankRdBursts::8                 10                       # Per bank write bursts
system.mem_ctrl.perBankRdBursts::9                 60                       # Per bank write bursts
system.mem_ctrl.perBankRdBursts::10                15                       # Per bank write bursts
system.mem_ctrl.perBankRdBursts::11                12                       # Per bank write bursts
system.mem_ctrl.perBankRdBursts::12                 8                       # Per bank write bursts
system.mem_ctrl.perBankRdBursts::13                18                       # Per bank write bursts
system.mem_ctrl.perBankRdBursts::14                50                       # Per bank write bursts
system.mem_ctrl.perBankRdBursts::15                 8                       # Per bank write bursts
system.mem_ctrl.perBankWrBursts::0                  0                       # Per bank write bursts
system.mem_ctrl.perBankWrBursts::1                  0                       # Per bank write bursts
system.mem_ctrl.perBankWrBursts::2                  0                       # Per bank write bursts
system.mem_ctrl.perBankWrBursts::3                  0                       # Per bank write bursts
system.mem_ctrl.perBankWrBursts::4                  0                       # Per bank write bursts
system.mem_ctrl.perBankWrBursts::5                  0                       # Per bank write bursts
system.mem_ctrl.perBankWrBursts::6                  0                       # Per bank write bursts
system.mem_ctrl.perBankWrBursts::7                  0                       # Per bank write bursts
system.mem_ctrl.perBankWrBursts::8                  0                       # Per bank write bursts
system.mem_ctrl.perBankWrBursts::9                  0                       # Per bank write bursts
system.mem_ctrl.perBankWrBursts::10                 0                       # Per bank write bursts
system.mem_ctrl.perBankWrBursts::11                 0                       # Per bank write bursts
system.mem_ctrl.perBankWrBursts::12                 0                       # Per bank write bursts
system.mem_ctrl.perBankWrBursts::13                 0                       # Per bank write bursts
system.mem_ctrl.perBankWrBursts::14                 0                       # Per bank write bursts
system.mem_ctrl.perBankWrBursts::15                 0                       # Per bank write bursts
system.mem_ctrl.numRdRetry                          0                       # Number of times read queue was full causing retry
system.mem_ctrl.numWrRetry                          0                       # Number of times write queue was full causing retry
system.mem_ctrl.totGap                       59622405                       # Total gap between requests
system.mem_ctrl.readPktSize::0                      0                       # Read request sizes (log2)
system.mem_ctrl.readPktSize::1                      0                       # Read request sizes (log2)
system.mem_ctrl.readPktSize::2                      0                       # Read request sizes (log2)
system.mem_ctrl.readPktSize::3                      0                       # Read request sizes (log2)
system.mem_ctrl.readPktSize::4                      0                       # Read request sizes (log2)
system.mem_ctrl.readPktSize::5                      0                       # Read request sizes (log2)
system.mem_ctrl.readPktSize::6                    498                       # Read request sizes (log2)
system.mem_ctrl.writePktSize::0                     0                       # Write request sizes (log2)
system.mem_ctrl.writePktSize::1                     0                       # Write request sizes (log2)
system.mem_ctrl.writePktSize::2                     0                       # Write request sizes (log2)
system.mem_ctrl.writePktSize::3                     0                       # Write request sizes (log2)
system.mem_ctrl.writePktSize::4                     0                       # Write request sizes (log2)
system.mem_ctrl.writePktSize::5                     0                       # Write request sizes (log2)
system.mem_ctrl.writePktSize::6                     0                       # Write request sizes (log2)
system.mem_ctrl.rdQLenPdf::0                      272                       # What read queue length does an incoming req see
system.mem_ctrl.rdQLenPdf::1                      156                       # What read queue length does an incoming req see
system.mem_ctrl.rdQLenPdf::2                       51                       # What read queue length does an incoming req see
system.mem_ctrl.rdQLenPdf::3                       14                       # What read queue length does an incoming req see
system.mem_ctrl.rdQLenPdf::4                        5                       # What read queue length does an incoming req see
system.mem_ctrl.rdQLenPdf::5                        0                       # What read queue length does an incoming req see
system.mem_ctrl.rdQLenPdf::6                        0                       # What read queue length does an incoming req see
system.mem_ctrl.rdQLenPdf::7                        0                       # What read queue length does an incoming req see
system.mem_ctrl.rdQLenPdf::8                        0                       # What read queue length does an incoming req see
system.mem_ctrl.rdQLenPdf::9                        0                       # What read queue length does an incoming req see
system.mem_ctrl.rdQLenPdf::10                       0                       # What read queue length does an incoming req see
system.mem_ctrl.rdQLenPdf::11                       0                       # What read queue length does an incoming req see
system.mem_ctrl.rdQLenPdf::12                       0                       # What read queue length does an incoming req see
system.mem_ctrl.rdQLenPdf::13                       0                       # What read queue length does an incoming req see
system.mem_ctrl.rdQLenPdf::14                       0                       # What read queue length does an incoming req see
system.mem_ctrl.rdQLenPdf::15                       0                       # What read queue length does an incoming req see
system.mem_ctrl.rdQLenPdf::16                       0                       # What read queue length does an incoming req see
system.mem_ctrl.rdQLenPdf::17                       0                       # What read queue length does an incoming req see
system.mem_ctrl.rdQLenPdf::18                       0                       # What read queue length does an incoming req see
system.mem_ctrl.rdQLenPdf::19                       0                       # What read queue length does an incoming req see
system.mem_ctrl.rdQLenPdf::20                       0                       # What read queue length does an incoming req see
system.mem_ctrl.rdQLenPdf::21                       0                       # What read queue length does an incoming req see
system.mem_ctrl.rdQLenPdf::22                       0                       # What read queue length does an incoming req see
system.mem_ctrl.rdQLenPdf::23                       0                       # What read queue length does an incoming req see
system.mem_ctrl.rdQLenPdf::24                       0                       # What read queue length does an incoming req see
system.mem_ctrl.rdQLenPdf::25                       0                       # What read queue length does an incoming req see
system.mem_ctrl.rdQLenPdf::26                       0                       # What read queue length does an incoming req see
system.mem_ctrl.rdQLenPdf::27                       0                       # What read queue length does an incoming req see
system.mem_ctrl.rdQLenPdf::28                       0                       # What read queue length does an incoming req see
system.mem_ctrl.rdQLenPdf::29                       0                       # What read queue length does an incoming req see
system.mem_ctrl.rdQLenPdf::30                       0                       # What read queue length does an incoming req see
system.mem_ctrl.rdQLenPdf::31                       0                       # What read queue length does an incoming req see
system.mem_ctrl.wrQLenPdf::0                        0                       # What write queue length does an incoming req see
system.mem_ctrl.wrQLenPdf::1                        0                       # What write queue length does an incoming req see
system.mem_ctrl.wrQLenPdf::2                        0                       # What write queue length does an incoming req see
system.mem_ctrl.wrQLenPdf::3                        0                       # What write queue length does an incoming req see
system.mem_ctrl.wrQLenPdf::4                        0                       # What write queue length does an incoming req see
system.mem_ctrl.wrQLenPdf::5                        0                       # What write queue length does an incoming req see
system.mem_ctrl.wrQLenPdf::6                        0                       # What write queue length does an incoming req see
system.mem_ctrl.wrQLenPdf::7                        0                       # What write queue length does an incoming req see
system.mem_ctrl.wrQLenPdf::8                        0                       # What write queue length does an incoming req see
system.mem_ctrl.wrQLenPdf::9                        0                       # What write queue length does an incoming req see
system.mem_ctrl.wrQLenPdf::10                       0                       # What write queue length does an incoming req see
system.mem_ctrl.wrQLenPdf::11                       0                       # What write queue length does an incoming req see
system.mem_ctrl.wrQLenPdf::12                       0                       # What write queue length does an incoming req see
system.mem_ctrl.wrQLenPdf::13                       0                       # What write queue length does an incoming req see
system.mem_ctrl.wrQLenPdf::14                       0                       # What write queue length does an incoming req see
system.mem_ctrl.wrQLenPdf::15                       0                       # What write queue length does an incoming req see
system.mem_ctrl.wrQLenPdf::16                       0                       # What write queue length does an incoming req see
system.mem_ctrl.wrQLenPdf::17                       0                       # What write queue length does an incoming req see
system.mem_ctrl.wrQLenPdf::18                       0                       # What write queue length does an incoming req see
system.mem_ctrl.wrQLenPdf::19                       0                       # What write queue length does an incoming req see
system.mem_ctrl.wrQLenPdf::20                       0                       # What write queue length does an incoming req see
system.mem_ctrl.wrQLenPdf::21                       0                       # What write queue length does an incoming req see
system.mem_ctrl.wrQLenPdf::22                       0                       # What write queue length does an incoming req see
system.mem_ctrl.wrQLenPdf::23                       0                       # What write queue length does an incoming req see
system.mem_ctrl.wrQLenPdf::24                       0                       # What write queue length does an incoming req see
system.mem_ctrl.wrQLenPdf::25                       0                       # What write queue length does an incoming req see
system.mem_ctrl.wrQLenPdf::26                       0                       # What write queue length does an incoming req see
system.mem_ctrl.wrQLenPdf::27                       0                       # What write queue length does an incoming req see
system.mem_ctrl.wrQLenPdf::28                       0                       # What write queue length does an incoming req see
system.mem_ctrl.wrQLenPdf::29                       0                       # What write queue length does an incoming req see
system.mem_ctrl.wrQLenPdf::30                       0                       # What write queue length does an incoming req see
system.mem_ctrl.wrQLenPdf::31                       0                       # What write queue length does an incoming req see
system.mem_ctrl.wrQLenPdf::32                       0                       # What write queue length does an incoming req see
system.mem_ctrl.wrQLenPdf::33                       0                       # What write queue length does an incoming req see
system.mem_ctrl.wrQLenPdf::34                       0                       # What write queue length does an incoming req see
system.mem_ctrl.wrQLenPdf::35                       0                       # What write queue length does an incoming req see
system.mem_ctrl.wrQLenPdf::36                       0                       # What write queue length does an incoming req see
system.mem_ctrl.wrQLenPdf::37                       0                       # What write queue length does an incoming req see
system.mem_ctrl.wrQLenPdf::38                       0                       # What write queue length does an incoming req see
system.mem_ctrl.wrQLenPdf::39                       0                       # What write queue length does an incoming req see
system.mem_ctrl.wrQLenPdf::40                       0                       # What write queue length does an incoming req see
system.mem_ctrl.wrQLenPdf::41                       0                       # What write queue length does an incoming req see
system.mem_ctrl.wrQLenPdf::42                       0                       # What write queue length does an incoming req see
system.mem_ctrl.wrQLenPdf::43                       0                       # What write queue length does an incoming req see
system.mem_ctrl.wrQLenPdf::44                       0                       # What write queue length does an incoming req see
system.mem_ctrl.wrQLenPdf::45                       0                       # What write queue length does an incoming req see
system.mem_ctrl.wrQLenPdf::46                       0                       # What write queue length does an incoming req see
system.mem_ctrl.wrQLenPdf::47                       0                       # What write queue length does an incoming req see
system.mem_ctrl.wrQLenPdf::48                       0                       # What write queue length does an incoming req see
system.mem_ctrl.wrQLenPdf::49                       0                       # What write queue length does an incoming req see
system.mem_ctrl.wrQLenPdf::50                       0                       # What write queue length does an incoming req see
system.mem_ctrl.wrQLenPdf::51                       0                       # What write queue length does an incoming req see
system.mem_ctrl.wrQLenPdf::52                       0                       # What write queue length does an incoming req see
system.mem_ctrl.wrQLenPdf::53                       0                       # What write queue length does an incoming req see
system.mem_ctrl.wrQLenPdf::54                       0                       # What write queue length does an incoming req see
system.mem_ctrl.wrQLenPdf::55                       0                       # What write queue length does an incoming req see
system.mem_ctrl.wrQLenPdf::56                       0                       # What write queue length does an incoming req see
system.mem_ctrl.wrQLenPdf::57                       0                       # What write queue length does an incoming req see
system.mem_ctrl.wrQLenPdf::58                       0                       # What write queue length does an incoming req see
system.mem_ctrl.wrQLenPdf::59                       0                       # What write queue length does an incoming req see
system.mem_ctrl.wrQLenPdf::60                       0                       # What write queue length does an incoming req see
system.mem_ctrl.wrQLenPdf::61                       0                       # What write queue length does an incoming req see
system.mem_ctrl.wrQLenPdf::62                       0                       # What write queue length does an incoming req see
system.mem_ctrl.wrQLenPdf::63                       0                       # What write queue length does an incoming req see
system.mem_ctrl.bytesPerActivate::samples           83                       # Bytes accessed per row activation
system.mem_ctrl.bytesPerActivate::mean     364.722892                       # Bytes accessed per row activation
system.mem_ctrl.bytesPerActivate::gmean    218.044474                       # Bytes accessed per row activation
system.mem_ctrl.bytesPerActivate::stdev    351.216503                       # Bytes accessed per row activation
system.mem_ctrl.bytesPerActivate::0-127            27     32.53%     32.53% # Bytes accessed per row activation
system.mem_ctrl.bytesPerActivate::128-255           14     16.87%     49.40% # Bytes accessed per row activation
system.mem_ctrl.bytesPerActivate::256-383           11     13.25%     62.65% # Bytes accessed per row activation
system.mem_ctrl.bytesPerActivate::384-511            7      8.43%     71.08% # Bytes accessed per row activation
system.mem_ctrl.bytesPerActivate::512-639            4      4.82%     75.90% # Bytes accessed per row activation
system.mem_ctrl.bytesPerActivate::640-767            2      2.41%     78.31% # Bytes accessed per row activation
system.mem_ctrl.bytesPerActivate::768-895            5      6.02%     84.34% # Bytes accessed per row activation
system.mem_ctrl.bytesPerActivate::896-1023            1      1.20%     85.54% # Bytes accessed per row activation
system.mem_ctrl.bytesPerActivate::1024-1151           12     14.46%    100.00% # Bytes accessed per row activation
system.mem_ctrl.bytesPerActivate::total            83                       # Bytes accessed per row activation
system.mem_ctrl.masterReadBytes::.cpu.inst        20736                       # Per-master bytes read from memory
system.mem_ctrl.masterReadBytes::.cpu.data        11136                       # Per-master bytes read from memory
system.mem_ctrl.masterReadRate::.cpu.inst 347266793.793510377407                       # Per-master bytes read from memory rate (Bytes/sec)
system.mem_ctrl.masterReadRate::.cpu.data 186495130.000218540430                       # Per-master bytes read from memory rate (Bytes/sec)
system.mem_ctrl.masterReadAccesses::.cpu.inst          324                       # Per-master read serviced memory accesses
system.mem_ctrl.masterReadAccesses::.cpu.data          174                       # Per-master read serviced memory accesses
system.mem_ctrl.masterReadTotalLat::.cpu.inst     10937865                       # Per-master read total memory access latency
system.mem_ctrl.masterReadTotalLat::.cpu.data      5837655                       # Per-master read total memory access latency
system.mem_ctrl.masterReadAvgLat::.cpu.inst     33758.84                       # Per-master read average memory access latency
system.mem_ctrl.masterReadAvgLat::.cpu.data     33549.74                       # Per-master read average memory access latency
system.mem_ctrl.totQLat                       7438020                       # Total ticks spent queuing
system.mem_ctrl.totMemAccLat                 16775520                       # Total ticks spent from burst creation until serviced by the DRAM
system.mem_ctrl.totBusLat                     2490000                       # Total ticks spent in databus transfers
system.mem_ctrl.avgQLat                      14935.78                       # Average queueing delay per DRAM burst
system.mem_ctrl.avgBusLat                     5000.00                       # Average bus latency per DRAM burst
system.mem_ctrl.avgMemAccLat                 33685.78                       # Average memory access latency per DRAM burst
system.mem_ctrl.avgRdBW                        533.76                       # Average DRAM read bandwidth in MiByte/s
system.mem_ctrl.avgWrBW                          0.00                       # Average achieved write bandwidth in MiByte/s
system.mem_ctrl.avgRdBWSys                     533.76                       # Average system read bandwidth in MiByte/s
system.mem_ctrl.avgWrBWSys                       0.00                       # Average system write bandwidth in MiByte/s
system.mem_ctrl.peakBW                       12800.00                       # Theoretical peak bandwidth in MiByte/s
system.mem_ctrl.busUtil                          4.17                       # Data bus utilization in percentage
system.mem_ctrl.busUtilRead                      4.17                       # Data bus utilization in percentage for reads
system.mem_ctrl.busUtilWrite                     0.00                       # Data bus utilization in percentage for writes
system.mem_ctrl.avgRdQLen                        1.32                       # Average read queue length when enqueuing
system.mem_ctrl.avgWrQLen                        0.00                       # Average write queue length when enqueuing
system.mem_ctrl.readRowHits                       408                       # Number of row buffer hits during reads
system.mem_ctrl.writeRowHits                        0                       # Number of row buffer hits during writes
system.mem_ctrl.readRowHitRate                  81.93                       # Row buffer hit rate for reads
system.mem_ctrl.writeRowHitRate                   nan                       # Row buffer hit rate for writes
system.mem_ctrl.avgGap                      119723.70                       # Average gap between requests
system.mem_ctrl.pageHitRate                     81.93                       # Row buffer hit rate, read and write combined
system.mem_ctrl_0.actEnergy                    399840                       # Energy for activate commands per rank (pJ)
system.mem_ctrl_0.preEnergy                    201135                       # Energy for precharge commands per rank (pJ)
system.mem_ctrl_0.readEnergy                  2263380                       # Energy for read commands per rank (pJ)
system.mem_ctrl_0.writeEnergy                       0                       # Energy for write commands per rank (pJ)
system.mem_ctrl_0.refreshEnergy          3073200.000000                       # Energy for refresh commands per rank (pJ)
system.mem_ctrl_0.actBackEnergy               3742620                       # Energy for active background per rank (pJ)
system.mem_ctrl_0.preBackEnergy                175200                       # Energy for precharge background per rank (pJ)
system.mem_ctrl_0.actPowerDownEnergy          9532680                       # Energy for active power-down per rank (pJ)
system.mem_ctrl_0.prePowerDownEnergy          4769760                       # Energy for precharge power-down per rank (pJ)
system.mem_ctrl_0.selfRefreshEnergy           4805640                       # Energy for self refresh per rank (pJ)
system.mem_ctrl_0.totalEnergy                28963455                       # Total energy per rank (pJ)
system.mem_ctrl_0.averagePower             485.052380                       # Core power per rank (mW)
system.mem_ctrl_0.totalIdleTime              50996340                       # Total Idle time Per DRAM Rank
system.mem_ctrl_0.memoryStateTime::IDLE        319050                       # Time in different power states
system.mem_ctrl_0.memoryStateTime::REF        1300000                       # Time in different power states
system.mem_ctrl_0.memoryStateTime::SREF      17721935                       # Time in different power states
system.mem_ctrl_0.memoryStateTime::PRE_PDN     12419725                       # Time in different power states
system.mem_ctrl_0.memoryStateTime::ACT        7044815                       # Time in different power states
system.mem_ctrl_0.memoryStateTime::ACT_PDN     20906490                       # Time in different power states
system.mem_ctrl_1.actEnergy                    242760                       # Energy for activate commands per rank (pJ)
system.mem_ctrl_1.preEnergy                    113850                       # Energy for precharge commands per rank (pJ)
system.mem_ctrl_1.readEnergy                  1292340                       # Energy for read commands per rank (pJ)
system.mem_ctrl_1.writeEnergy                       0                       # Energy for write commands per rank (pJ)
system.mem_ctrl_1.refreshEnergy          3073200.000000                       # Energy for refresh commands per rank (pJ)
system.mem_ctrl_1.actBackEnergy               2522250                       # Energy for active background per rank (pJ)
system.mem_ctrl_1.preBackEnergy                326880                       # Energy for precharge background per rank (pJ)
system.mem_ctrl_1.actPowerDownEnergy         10173930                       # Energy for active power-down per rank (pJ)
system.mem_ctrl_1.prePowerDownEnergy          5116800                       # Energy for precharge power-down per rank (pJ)
system.mem_ctrl_1.selfRefreshEnergy           4798740                       # Energy for self refresh per rank (pJ)
system.mem_ctrl_1.totalEnergy                27660750                       # Total energy per rank (pJ)
system.mem_ctrl_1.averagePower             463.235917                       # Core power per rank (mW)
system.mem_ctrl_1.totalIdleTime              52796265                       # Total Idle time Per DRAM Rank
system.mem_ctrl_1.memoryStateTime::IDLE        698805                       # Time in different power states
system.mem_ctrl_1.memoryStateTime::REF        1300000                       # Time in different power states
system.mem_ctrl_1.memoryStateTime::SREF      17692790                       # Time in different power states
system.mem_ctrl_1.memoryStateTime::PRE_PDN     13326400                       # Time in different power states
system.mem_ctrl_1.memoryStateTime::ACT        4377935                       # Time in different power states
system.mem_ctrl_1.memoryStateTime::ACT_PDN     22316085                       # Time in different power states
system.pwrStateResidencyTicks::UNDEFINED     59712015                       # Cumulative time (in ticks) in various power states
system.cpu.branchPred.lookups                   25568                       # Number of BP lookups
system.cpu.branchPred.condPredicted             16545                       # Number of conditional branches predicted
system.cpu.branchPred.condIncorrect              2009                       # Number of conditional branches incorrect
system.cpu.branchPred.BTBLookups                20324                       # Number of BTB lookups
system.cpu.branchPred.BTBHits                    7509                       # Number of BTB hits
system.cpu.branchPred.BTBCorrect                    0                       # Number of correct BTB predictions (this stat may not work properly.
system.cpu.branchPred.BTBHitPct             36.946467                       # BTB Hit Percentage
system.cpu.branchPred.usedRAS                    2989                       # Number of times the RAS was used to get a target.
system.cpu.branchPred.RASInCorrect               1244                       # Number of incorrect RAS predictions.
system.cpu.branchPred.indirectLookups            1889                       # Number of indirect predictor lookups.
system.cpu.branchPred.indirectHits                820                       # Number of indirect target hits.
system.cpu.branchPred.indirectMisses             1069                       # Number of indirect misses.
system.cpu.branchPredindirectMispredicted           81                       # Number of mispredicted indirect branches.
system.cpu.dstage2_mmu.stage2_tlb.walker.pwrStateResidencyTicks::UNDEFINED     59712015                       # Cumulative time (in ticks) in various power states
system.cpu.dstage2_mmu.stage2_tlb.walker.walks            0                       # Table walker walks requested
system.cpu.dstage2_mmu.stage2_tlb.walker.walkRequestOrigin_Requested::Data            0                       # Table walker requests started/completed, data/inst
system.cpu.dstage2_mmu.stage2_tlb.walker.walkRequestOrigin_Requested::Inst            0                       # Table walker requests started/completed, data/inst
system.cpu.dstage2_mmu.stage2_tlb.walker.walkRequestOrigin_Requested::total            0                       # Table walker requests started/completed, data/inst
system.cpu.dstage2_mmu.stage2_tlb.walker.walkRequestOrigin_Completed::Data            0                       # Table walker requests started/completed, data/inst
system.cpu.dstage2_mmu.stage2_tlb.walker.walkRequestOrigin_Completed::Inst            0                       # Table walker requests started/completed, data/inst
system.cpu.dstage2_mmu.stage2_tlb.walker.walkRequestOrigin_Completed::total            0                       # Table walker requests started/completed, data/inst
system.cpu.dstage2_mmu.stage2_tlb.walker.walkRequestOrigin::total            0                       # Table walker requests started/completed, data/inst
system.cpu.dstage2_mmu.stage2_tlb.inst_hits            0                       # ITB inst hits
system.cpu.dstage2_mmu.stage2_tlb.inst_misses            0                       # ITB inst misses
system.cpu.dstage2_mmu.stage2_tlb.read_hits            0                       # DTB read hits
system.cpu.dstage2_mmu.stage2_tlb.read_misses            0                       # DTB read misses
system.cpu.dstage2_mmu.stage2_tlb.write_hits            0                       # DTB write hits
system.cpu.dstage2_mmu.stage2_tlb.write_misses            0                       # DTB write misses
system.cpu.dstage2_mmu.stage2_tlb.flush_tlb            0                       # Number of times complete TLB was flushed
system.cpu.dstage2_mmu.stage2_tlb.flush_tlb_mva            0                       # Number of times TLB was flushed by MVA
system.cpu.dstage2_mmu.stage2_tlb.flush_tlb_mva_asid            0                       # Number of times TLB was flushed by MVA & ASID
system.cpu.dstage2_mmu.stage2_tlb.flush_tlb_asid            0                       # Number of times TLB was flushed by ASID
system.cpu.dstage2_mmu.stage2_tlb.flush_entries            0                       # Number of entries that have been flushed from TLB
system.cpu.dstage2_mmu.stage2_tlb.align_faults            0                       # Number of TLB faults due to alignment restrictions
system.cpu.dstage2_mmu.stage2_tlb.prefetch_faults            0                       # Number of TLB faults due to prefetch
system.cpu.dstage2_mmu.stage2_tlb.domain_faults            0                       # Number of TLB faults due to domain restrictions
system.cpu.dstage2_mmu.stage2_tlb.perms_faults            0                       # Number of TLB faults due to permissions restrictions
system.cpu.dstage2_mmu.stage2_tlb.read_accesses            0                       # DTB read accesses
system.cpu.dstage2_mmu.stage2_tlb.write_accesses            0                       # DTB write accesses
system.cpu.dstage2_mmu.stage2_tlb.inst_accesses            0                       # ITB inst accesses
system.cpu.dstage2_mmu.stage2_tlb.hits              0                       # DTB hits
system.cpu.dstage2_mmu.stage2_tlb.misses            0                       # DTB misses
system.cpu.dstage2_mmu.stage2_tlb.accesses            0                       # DTB accesses
system.cpu.dtb.walker.pwrStateResidencyTicks::UNDEFINED     59712015                       # Cumulative time (in ticks) in various power states
system.cpu.dtb.walker.walks                         0                       # Table walker walks requested
system.cpu.dtb.walker.walkRequestOrigin_Requested::Data            0                       # Table walker requests started/completed, data/inst
system.cpu.dtb.walker.walkRequestOrigin_Requested::Inst            0                       # Table walker requests started/completed, data/inst
system.cpu.dtb.walker.walkRequestOrigin_Requested::total            0                       # Table walker requests started/completed, data/inst
system.cpu.dtb.walker.walkRequestOrigin_Completed::Data            0                       # Table walker requests started/completed, data/inst
system.cpu.dtb.walker.walkRequestOrigin_Completed::Inst            0                       # Table walker requests started/completed, data/inst
system.cpu.dtb.walker.walkRequestOrigin_Completed::total            0                       # Table walker requests started/completed, data/inst
system.cpu.dtb.walker.walkRequestOrigin::total            0                       # Table walker requests started/completed, data/inst
system.cpu.dtb.inst_hits                            0                       # ITB inst hits
system.cpu.dtb.inst_misses                          0                       # ITB inst misses
system.cpu.dtb.read_hits                            0                       # DTB read hits
system.cpu.dtb.read_misses                          0                       # DTB read misses
system.cpu.dtb.write_hits                           0                       # DTB write hits
system.cpu.dtb.write_misses                         0                       # DTB write misses
system.cpu.dtb.flush_tlb                            0                       # Number of times complete TLB was flushed
system.cpu.dtb.flush_tlb_mva                        0                       # Number of times TLB was flushed by MVA
system.cpu.dtb.flush_tlb_mva_asid                   0                       # Number of times TLB was flushed by MVA & ASID
system.cpu.dtb.flush_tlb_asid                       0                       # Number of times TLB was flushed by ASID
system.cpu.dtb.flush_entries                        0                       # Number of entries that have been flushed from TLB
system.cpu.dtb.align_faults                         0                       # Number of TLB faults due to alignment restrictions
system.cpu.dtb.prefetch_faults                      0                       # Number of TLB faults due to prefetch
system.cpu.dtb.domain_faults                        0                       # Number of TLB faults due to domain restrictions
system.cpu.dtb.perms_faults                         0                       # Number of TLB faults due to permissions restrictions
system.cpu.dtb.read_accesses                        0                       # DTB read accesses
system.cpu.dtb.write_accesses                       0                       # DTB write accesses
system.cpu.dtb.inst_accesses                        0                       # ITB inst accesses
system.cpu.dtb.hits                                 0                       # DTB hits
system.cpu.dtb.misses                               0                       # DTB misses
system.cpu.dtb.accesses                             0                       # DTB accesses
system.cpu.istage2_mmu.stage2_tlb.walker.pwrStateResidencyTicks::UNDEFINED     59712015                       # Cumulative time (in ticks) in various power states
system.cpu.istage2_mmu.stage2_tlb.walker.walks            0                       # Table walker walks requested
system.cpu.istage2_mmu.stage2_tlb.walker.walkRequestOrigin_Requested::Data            0                       # Table walker requests started/completed, data/inst
system.cpu.istage2_mmu.stage2_tlb.walker.walkRequestOrigin_Requested::Inst            0                       # Table walker requests started/completed, data/inst
system.cpu.istage2_mmu.stage2_tlb.walker.walkRequestOrigin_Requested::total            0                       # Table walker requests started/completed, data/inst
system.cpu.istage2_mmu.stage2_tlb.walker.walkRequestOrigin_Completed::Data            0                       # Table walker requests started/completed, data/inst
system.cpu.istage2_mmu.stage2_tlb.walker.walkRequestOrigin_Completed::Inst            0                       # Table walker requests started/completed, data/inst
system.cpu.istage2_mmu.stage2_tlb.walker.walkRequestOrigin_Completed::total            0                       # Table walker requests started/completed, data/inst
system.cpu.istage2_mmu.stage2_tlb.walker.walkRequestOrigin::total            0                       # Table walker requests started/completed, data/inst
system.cpu.istage2_mmu.stage2_tlb.inst_hits            0                       # ITB inst hits
system.cpu.istage2_mmu.stage2_tlb.inst_misses            0                       # ITB inst misses
system.cpu.istage2_mmu.stage2_tlb.read_hits            0                       # DTB read hits
system.cpu.istage2_mmu.stage2_tlb.read_misses            0                       # DTB read misses
system.cpu.istage2_mmu.stage2_tlb.write_hits            0                       # DTB write hits
system.cpu.istage2_mmu.stage2_tlb.write_misses            0                       # DTB write misses
system.cpu.istage2_mmu.stage2_tlb.flush_tlb            0                       # Number of times complete TLB was flushed
system.cpu.istage2_mmu.stage2_tlb.flush_tlb_mva            0                       # Number of times TLB was flushed by MVA
system.cpu.istage2_mmu.stage2_tlb.flush_tlb_mva_asid            0                       # Number of times TLB was flushed by MVA & ASID
system.cpu.istage2_mmu.stage2_tlb.flush_tlb_asid            0                       # Number of times TLB was flushed by ASID
system.cpu.istage2_mmu.stage2_tlb.flush_entries            0                       # Number of entries that have been flushed from TLB
system.cpu.istage2_mmu.stage2_tlb.align_faults            0                       # Number of TLB faults due to alignment restrictions
system.cpu.istage2_mmu.stage2_tlb.prefetch_faults            0                       # Number of TLB faults due to prefetch
system.cpu.istage2_mmu.stage2_tlb.domain_faults            0                       # Number of TLB faults due to domain restrictions
system.cpu.istage2_mmu.stage2_tlb.perms_faults            0                       # Number of TLB faults due to permissions restrictions
system.cpu.istage2_mmu.stage2_tlb.read_accesses            0                       # DTB read accesses
system.cpu.istage2_mmu.stage2_tlb.write_accesses            0                       # DTB write accesses
system.cpu.istage2_mmu.stage2_tlb.inst_accesses            0                       # ITB inst accesses
system.cpu.istage2_mmu.stage2_tlb.hits              0                       # DTB hits
system.cpu.istage2_mmu.stage2_tlb.misses            0                       # DTB misses
system.cpu.istage2_mmu.stage2_tlb.accesses            0                       # DTB accesses
system.cpu.itb.walker.pwrStateResidencyTicks::UNDEFINED     59712015                       # Cumulative time (in ticks) in various power states
system.cpu.itb.walker.walks                         0                       # Table walker walks requested
system.cpu.itb.walker.walkRequestOrigin_Requested::Data            0                       # Table walker requests started/completed, data/inst
system.cpu.itb.walker.walkRequestOrigin_Requested::Inst            0                       # Table walker requests started/completed, data/inst
system.cpu.itb.walker.walkRequestOrigin_Requested::total            0                       # Table walker requests started/completed, data/inst
system.cpu.itb.walker.walkRequestOrigin_Completed::Data            0                       # Table walker requests started/completed, data/inst
system.cpu.itb.walker.walkRequestOrigin_Completed::Inst            0                       # Table walker requests started/completed, data/inst
system.cpu.itb.walker.walkRequestOrigin_Completed::total            0                       # Table walker requests started/completed, data/inst
system.cpu.itb.walker.walkRequestOrigin::total            0                       # Table walker requests started/completed, data/inst
system.cpu.itb.inst_hits                            0                       # ITB inst hits
system.cpu.itb.inst_misses                          0                       # ITB inst misses
system.cpu.itb.read_hits                            0                       # DTB read hits
system.cpu.itb.read_misses                          0                       # DTB read misses
system.cpu.itb.write_hits                           0                       # DTB write hits
system.cpu.itb.write_misses                         0                       # DTB write misses
system.cpu.itb.flush_tlb                            0                       # Number of times complete TLB was flushed
system.cpu.itb.flush_tlb_mva                        0                       # Number of times TLB was flushed by MVA
system.cpu.itb.flush_tlb_mva_asid                   0                       # Number of times TLB was flushed by MVA & ASID
system.cpu.itb.flush_tlb_asid                       0                       # Number of times TLB was flushed by ASID
system.cpu.itb.flush_entries                        0                       # Number of entries that have been flushed from TLB
system.cpu.itb.align_faults                         0                       # Number of TLB faults due to alignment restrictions
system.cpu.itb.prefetch_faults                      0                       # Number of TLB faults due to prefetch
system.cpu.itb.domain_faults                        0                       # Number of TLB faults due to domain restrictions
system.cpu.itb.perms_faults                         0                       # Number of TLB faults due to permissions restrictions
system.cpu.itb.read_accesses                        0                       # DTB read accesses
system.cpu.itb.write_accesses                       0                       # DTB write accesses
system.cpu.itb.inst_accesses                        0                       # ITB inst accesses
system.cpu.itb.hits                                 0                       # DTB hits
system.cpu.itb.misses                               0                       # DTB misses
system.cpu.itb.accesses                             0                       # DTB accesses
system.cpu.workload.numSyscalls                    11                       # Number of system calls
system.cpu.pwrStateResidencyTicks::ON        59712015                       # Cumulative time (in ticks) in various power states
system.cpu.numCycles                           137270                       # number of cpu cycles simulated
system.cpu.numWorkItemsStarted                      0                       # number of work items this cpu started
system.cpu.numWorkItemsCompleted                    0                       # number of work items this cpu completed
system.cpu.fetch.icacheStallCycles              31679                       # Number of cycles fetch is stalled on an Icache miss
system.cpu.fetch.Insts                         145761                       # Number of instructions fetch has processed
system.cpu.fetch.Branches                       25568                       # Number of branches that fetch encountered
system.cpu.fetch.predictedBranches              11318                       # Number of branches that fetch has predicted taken
system.cpu.fetch.Cycles                         72164                       # Number of cycles fetch has run and was not squashing or blocked
system.cpu.fetch.SquashCycles                    4160                       # Number of cycles fetch has spent squashing
system.cpu.fetch.MiscStallCycles                    4                       # Number of cycles fetch has spent waiting on interrupts, or bad addresses, or out of MSHRs
system.cpu.fetch.PendingTrapStallCycles            76                       # Number of stall cycles due to pending traps
system.cpu.fetch.CacheLines                     20442                       # Number of cache lines fetched
system.cpu.fetch.IcacheSquashes                   588                       # Number of outstanding Icache misses that were squashed
system.cpu.fetch.rateDist::samples             106003                       # Number of instructions fetched each cycle (Total)
system.cpu.fetch.rateDist::mean              1.543796                       # Number of instructions fetched each cycle (Total)
system.cpu.fetch.rateDist::stdev             1.397307                       # Number of instructions fetched each cycle (Total)
system.cpu.fetch.rateDist::underflows               0      0.00%      0.00% # Number of instructions fetched each cycle (Total)
system.cpu.fetch.rateDist::0                    43716     41.24%     41.24% # Number of instructions fetched each cycle (Total)
system.cpu.fetch.rateDist::1                     7545      7.12%     48.36% # Number of instructions fetched each cycle (Total)
system.cpu.fetch.rateDist::2                     8124      7.66%     56.02% # Number of instructions fetched each cycle (Total)
system.cpu.fetch.rateDist::3                    46618     43.98%    100.00% # Number of instructions fetched each cycle (Total)
system.cpu.fetch.rateDist::overflows                0      0.00%    100.00% # Number of instructions fetched each cycle (Total)
system.cpu.fetch.rateDist::min_value                0                       # Number of instructions fetched each cycle (Total)
system.cpu.fetch.rateDist::max_value                3                       # Number of instructions fetched each cycle (Total)
system.cpu.fetch.rateDist::total               106003                       # Number of instructions fetched each cycle (Total)
system.cpu.fetch.branchRate                  0.186261                       # Number of branch fetches per cycle
system.cpu.fetch.rate                        1.061856                       # Number of inst fetches per cycle
system.cpu.decode.IdleCycles                    27044                       # Number of cycles decode is idle
system.cpu.decode.BlockedCycles                 25973                       # Number of cycles decode is blocked
system.cpu.decode.RunCycles                     49177                       # Number of cycles decode is running
system.cpu.decode.UnblockCycles                  1917                       # Number of cycles decode is unblocking
system.cpu.decode.SquashCycles                   1892                       # Number of cycles decode is squashing
system.cpu.decode.BranchResolved                 6682                       # Number of times decode resolved a branch
system.cpu.decode.BranchMispred                   190                       # Number of times decode detected a branch misprediction
system.cpu.decode.DecodedInsts                 135504                       # Number of instructions handled by decode
system.cpu.decode.SquashedInsts                   422                       # Number of squashed instructions handled by decode
system.cpu.rename.SquashCycles                   1892                       # Number of cycles rename is squashing
system.cpu.rename.IdleCycles                    29854                       # Number of cycles rename is idle
system.cpu.rename.BlockCycles                    4809                       # Number of cycles rename is blocking
system.cpu.rename.serializeStallCycles          16871                       # count of cycles rename stalled for serializing inst
system.cpu.rename.RunCycles                     48248                       # Number of cycles rename is running
system.cpu.rename.UnblockCycles                  4329                       # Number of cycles rename is unblocking
system.cpu.rename.RenamedInsts                 130694                       # Number of instructions processed by rename
system.cpu.rename.IQFullEvents                    400                       # Number of times rename has blocked due to IQ full
system.cpu.rename.LQFullEvents                    396                       # Number of times rename has blocked due to LQ full
system.cpu.rename.SQFullEvents                   1684                       # Number of times rename has blocked due to SQ full
system.cpu.rename.RenamedOperands              137424                       # Number of destination operands rename has renamed
system.cpu.rename.RenameLookups                592979                       # Number of register rename lookups that rename has made
system.cpu.rename.int_rename_lookups           143379                       # Number of integer rename lookups
system.cpu.rename.fp_rename_lookups                16                       # Number of floating rename lookups
system.cpu.rename.CommittedMaps                115620                       # Number of HB maps that are committed
system.cpu.rename.UndoneMaps                    21803                       # Number of HB maps that are undone due to squashing
system.cpu.rename.serializingInsts                834                       # count of serializing insts renamed
system.cpu.rename.tempSerializingInsts            833                       # count of temporary serializing insts renamed
system.cpu.rename.skidInsts                      4472                       # count of insts added to the skid buffer
system.cpu.memDep0.insertedLoads                28484                       # Number of loads inserted to the mem dependence unit.
system.cpu.memDep0.insertedStores               15874                       # Number of stores inserted to the mem dependence unit.
system.cpu.memDep0.conflictingLoads              3308                       # Number of conflicting loads.
system.cpu.memDep0.conflictingStores              161                       # Number of conflicting stores.
system.cpu.iq.iqInstsAdded                     123270                       # Number of instructions added to the IQ (excludes non-spec)
system.cpu.iq.iqNonSpecInstsAdded                1650                       # Number of non-speculative instructions added to the IQ
system.cpu.iq.iqInstsIssued                    117252                       # Number of instructions issued
system.cpu.iq.iqSquashedInstsIssued               224                       # Number of squashed instructions issued
system.cpu.iq.iqSquashedInstsExamined           15366                       # Number of squashed instructions iterated over during squash; mainly for profiling
system.cpu.iq.iqSquashedOperandsExamined        42876                       # Number of squashed operands that are examined and possibly removed from graph
system.cpu.iq.iqSquashedNonSpecRemoved              3                       # Number of squashed non-spec instructions that were removed
system.cpu.iq.issued_per_cycle::samples        106003                       # Number of insts issued each cycle
system.cpu.iq.issued_per_cycle::mean         1.106120                       # Number of insts issued each cycle
system.cpu.iq.issued_per_cycle::stdev        1.175611                       # Number of insts issued each cycle
system.cpu.iq.issued_per_cycle::underflows            0      0.00%      0.00% # Number of insts issued each cycle
system.cpu.iq.issued_per_cycle::0               46618     43.98%     43.98% # Number of insts issued each cycle
system.cpu.iq.issued_per_cycle::1               23123     21.81%     65.79% # Number of insts issued each cycle
system.cpu.iq.issued_per_cycle::2               14657     13.83%     79.62% # Number of insts issued each cycle
system.cpu.iq.issued_per_cycle::3               21605     20.38%    100.00% # Number of insts issued each cycle
system.cpu.iq.issued_per_cycle::overflows            0      0.00%    100.00% # Number of insts issued each cycle
system.cpu.iq.issued_per_cycle::min_value            0                       # Number of insts issued each cycle
system.cpu.iq.issued_per_cycle::max_value            3                       # Number of insts issued each cycle
system.cpu.iq.issued_per_cycle::total          106003                       # Number of insts issued each cycle
system.cpu.iq.fu_full::No_OpClass                   0                       # attempts to use FU when none available
system.cpu.iq.fu_full::IntAlu                       0                       # attempts to use FU when none available
system.cpu.iq.fu_full::IntMult                      0                       # attempts to use FU when none available
system.cpu.iq.fu_full::IntDiv                       0                       # attempts to use FU when none available
system.cpu.iq.fu_full::FloatAdd                     0                       # attempts to use FU when none available
system.cpu.iq.fu_full::FloatCmp                     0                       # attempts to use FU when none available
system.cpu.iq.fu_full::FloatCvt                     0                       # attempts to use FU when none available
system.cpu.iq.fu_full::FloatMult                    0                       # attempts to use FU when none available
system.cpu.iq.fu_full::FloatMultAcc                 0                       # attempts to use FU when none available
system.cpu.iq.fu_full::FloatDiv                     0                       # attempts to use FU when none available
system.cpu.iq.fu_full::FloatMisc                    0                       # attempts to use FU when none available
system.cpu.iq.fu_full::FloatSqrt                    0                       # attempts to use FU when none available
system.cpu.iq.fu_full::SimdAdd                      0                       # attempts to use FU when none available
system.cpu.iq.fu_full::SimdAddAcc                   0                       # attempts to use FU when none available
system.cpu.iq.fu_full::SimdAlu                      0                       # attempts to use FU when none available
system.cpu.iq.fu_full::SimdCmp                      0                       # attempts to use FU when none available
system.cpu.iq.fu_full::SimdCvt                      0                       # attempts to use FU when none available
system.cpu.iq.fu_full::SimdMisc                     0                       # attempts to use FU when none available
system.cpu.iq.fu_full::SimdMult                     0                       # attempts to use FU when none available
system.cpu.iq.fu_full::SimdMultAcc                  0                       # attempts to use FU when none available
system.cpu.iq.fu_full::SimdShift                    0                       # attempts to use FU when none available
system.cpu.iq.fu_full::SimdShiftAcc                 0                       # attempts to use FU when none available
system.cpu.iq.fu_full::SimdSqrt                     0                       # attempts to use FU when none available
system.cpu.iq.fu_full::SimdFloatAdd                 0                       # attempts to use FU when none available
system.cpu.iq.fu_full::SimdFloatAlu                 0                       # attempts to use FU when none available
system.cpu.iq.fu_full::SimdFloatCmp                 0                       # attempts to use FU when none available
system.cpu.iq.fu_full::SimdFloatCvt                 0                       # attempts to use FU when none available
system.cpu.iq.fu_full::SimdFloatDiv                 0                       # attempts to use FU when none available
system.cpu.iq.fu_full::SimdFloatMisc                0                       # attempts to use FU when none available
system.cpu.iq.fu_full::SimdFloatMult                0                       # attempts to use FU when none available
system.cpu.iq.fu_full::SimdFloatMultAcc             0                       # attempts to use FU when none available
system.cpu.iq.fu_full::SimdFloatSqrt                0                       # attempts to use FU when none available
system.cpu.iq.fu_full::SimdAes                      0                       # attempts to use FU when none available
system.cpu.iq.fu_full::SimdAesMix                   0                       # attempts to use FU when none available
system.cpu.iq.fu_full::SimdSha1Hash                 0                       # attempts to use FU when none available
system.cpu.iq.fu_full::SimdSha1Hash2                0                       # attempts to use FU when none available
system.cpu.iq.fu_full::SimdSha256Hash               0                       # attempts to use FU when none available
system.cpu.iq.fu_full::SimdSha256Hash2              0                       # attempts to use FU when none available
system.cpu.iq.fu_full::SimdShaSigma2                0                       # attempts to use FU when none available
system.cpu.iq.fu_full::SimdShaSigma3                0                       # attempts to use FU when none available
system.cpu.iq.fu_full::MemRead                      0                       # attempts to use FU when none available
system.cpu.iq.fu_full::MemWrite                     0                       # attempts to use FU when none available
system.cpu.iq.fu_full::FloatMemRead                 0                       # attempts to use FU when none available
system.cpu.iq.fu_full::FloatMemWrite                0                       # attempts to use FU when none available
system.cpu.iq.fu_full::IprAccess                    0                       # attempts to use FU when none available
system.cpu.iq.fu_full::InstPrefetch                 0                       # attempts to use FU when none available
system.cpu.iq.FU_type_0::No_OpClass                 6      0.01%      0.01% # Type of FU issued
system.cpu.iq.FU_type_0::IntAlu                 74556     63.59%     63.59% # Type of FU issued
system.cpu.iq.FU_type_0::IntMult                  585      0.50%     64.09% # Type of FU issued
system.cpu.iq.FU_type_0::IntDiv                     0      0.00%     64.09% # Type of FU issued
system.cpu.iq.FU_type_0::FloatAdd                   0      0.00%     64.09% # Type of FU issued
system.cpu.iq.FU_type_0::FloatCmp                   0      0.00%     64.09% # Type of FU issued
system.cpu.iq.FU_type_0::FloatCvt                   0      0.00%     64.09% # Type of FU issued
system.cpu.iq.FU_type_0::FloatMult                  0      0.00%     64.09% # Type of FU issued
system.cpu.iq.FU_type_0::FloatMultAcc               0      0.00%     64.09% # Type of FU issued
system.cpu.iq.FU_type_0::FloatDiv                   0      0.00%     64.09% # Type of FU issued
system.cpu.iq.FU_type_0::FloatMisc                  0      0.00%     64.09% # Type of FU issued
system.cpu.iq.FU_type_0::FloatSqrt                  0      0.00%     64.09% # Type of FU issued
system.cpu.iq.FU_type_0::SimdAdd                    0      0.00%     64.09% # Type of FU issued
system.cpu.iq.FU_type_0::SimdAddAcc                 0      0.00%     64.09% # Type of FU issued
system.cpu.iq.FU_type_0::SimdAlu                    0      0.00%     64.09% # Type of FU issued
system.cpu.iq.FU_type_0::SimdCmp                    0      0.00%     64.09% # Type of FU issued
system.cpu.iq.FU_type_0::SimdCvt                    0      0.00%     64.09% # Type of FU issued
system.cpu.iq.FU_type_0::SimdMisc                   0      0.00%     64.09% # Type of FU issued
system.cpu.iq.FU_type_0::SimdMult                   0      0.00%     64.09% # Type of FU issued
system.cpu.iq.FU_type_0::SimdMultAcc                0      0.00%     64.09% # Type of FU issued
system.cpu.iq.FU_type_0::SimdShift                  0      0.00%     64.09% # Type of FU issued
system.cpu.iq.FU_type_0::SimdShiftAcc               0      0.00%     64.09% # Type of FU issued
system.cpu.iq.FU_type_0::SimdSqrt                   0      0.00%     64.09% # Type of FU issued
system.cpu.iq.FU_type_0::SimdFloatAdd               0      0.00%     64.09% # Type of FU issued
system.cpu.iq.FU_type_0::SimdFloatAlu               0      0.00%     64.09% # Type of FU issued
system.cpu.iq.FU_type_0::SimdFloatCmp               0      0.00%     64.09% # Type of FU issued
system.cpu.iq.FU_type_0::SimdFloatCvt               0      0.00%     64.09% # Type of FU issued
system.cpu.iq.FU_type_0::SimdFloatDiv               0      0.00%     64.09% # Type of FU issued
system.cpu.iq.FU_type_0::SimdFloatMisc              0      0.00%     64.09% # Type of FU issued
system.cpu.iq.FU_type_0::SimdFloatMult              0      0.00%     64.09% # Type of FU issued
system.cpu.iq.FU_type_0::SimdFloatMultAcc            0      0.00%     64.09% # Type of FU issued
system.cpu.iq.FU_type_0::SimdFloatSqrt              0      0.00%     64.09% # Type of FU issued
system.cpu.iq.FU_type_0::SimdAes                    0      0.00%     64.09% # Type of FU issued
system.cpu.iq.FU_type_0::SimdAesMix                 0      0.00%     64.09% # Type of FU issued
system.cpu.iq.FU_type_0::SimdSha1Hash               0      0.00%     64.09% # Type of FU issued
system.cpu.iq.FU_type_0::SimdSha1Hash2              0      0.00%     64.09% # Type of FU issued
system.cpu.iq.FU_type_0::SimdSha256Hash             0      0.00%     64.09% # Type of FU issued
system.cpu.iq.FU_type_0::SimdSha256Hash2            0      0.00%     64.09% # Type of FU issued
system.cpu.iq.FU_type_0::SimdShaSigma2              0      0.00%     64.09% # Type of FU issued
system.cpu.iq.FU_type_0::SimdShaSigma3              0      0.00%     64.09% # Type of FU issued
system.cpu.iq.FU_type_0::MemRead                26610     22.69%     86.78% # Type of FU issued
system.cpu.iq.FU_type_0::MemWrite               15479     13.20%     99.99% # Type of FU issued
system.cpu.iq.FU_type_0::FloatMemRead               0      0.00%     99.99% # Type of FU issued
system.cpu.iq.FU_type_0::FloatMemWrite             16      0.01%    100.00% # Type of FU issued
system.cpu.iq.FU_type_0::IprAccess                  0      0.00%    100.00% # Type of FU issued
system.cpu.iq.FU_type_0::InstPrefetch               0      0.00%    100.00% # Type of FU issued
system.cpu.iq.FU_type_0::total                 117252                       # Type of FU issued
system.cpu.iq.rate                           0.854171                       # Inst issue rate
system.cpu.iq.fu_busy_cnt                           0                       # FU busy when requested
system.cpu.iq.fu_busy_rate                          0                       # FU busy rate (busy events/executed inst)
system.cpu.iq.int_inst_queue_reads             340699                       # Number of integer instruction queue reads
system.cpu.iq.int_inst_queue_writes            140334                       # Number of integer instruction queue writes
system.cpu.iq.int_inst_queue_wakeup_accesses       113997                       # Number of integer instruction queue wakeup accesses
system.cpu.iq.fp_inst_queue_reads                  32                       # Number of floating instruction queue reads
system.cpu.iq.fp_inst_queue_writes                 16                       # Number of floating instruction queue writes
system.cpu.iq.fp_inst_queue_wakeup_accesses           16                       # Number of floating instruction queue wakeup accesses
system.cpu.iq.vec_inst_queue_reads                  0                       # Number of vector instruction queue reads
system.cpu.iq.vec_inst_queue_writes                 0                       # Number of vector instruction queue writes
system.cpu.iq.vec_inst_queue_wakeup_accesses            0                       # Number of vector instruction queue wakeup accesses
system.cpu.iq.int_alu_accesses                 117230                       # Number of integer alu accesses
system.cpu.iq.fp_alu_accesses                      16                       # Number of floating point alu accesses
system.cpu.iq.vec_alu_accesses                      0                       # Number of vector alu accesses
system.cpu.iew.lsq.thread0.forwLoads             1042                       # Number of loads that had data forwarded from stores
system.cpu.iew.lsq.thread0.invAddrLoads             0                       # Number of loads ignored due to an invalid address
system.cpu.iew.lsq.thread0.squashedLoads         4248                       # Number of loads squashed
system.cpu.iew.lsq.thread0.ignoredResponses            1                       # Number of memory responses ignored because the instruction is squashed
system.cpu.iew.lsq.thread0.memOrderViolation           66                       # Number of memory ordering violations
system.cpu.iew.lsq.thread0.squashedStores         1100                       # Number of stores squashed
system.cpu.iew.lsq.thread0.invAddrSwpfs             0                       # Number of software prefetches ignored due to an invalid address
system.cpu.iew.lsq.thread0.blockedLoads             0                       # Number of blocked loads due to partial load-store forwarding
system.cpu.iew.lsq.thread0.rescheduledLoads           65                       # Number of loads that were rescheduled
system.cpu.iew.lsq.thread0.cacheBlocked             9                       # Number of times an access to memory failed due to the cache being blocked
system.cpu.iew.iewIdleCycles                        0                       # Number of cycles IEW is idle
system.cpu.iew.iewSquashCycles                   1892                       # Number of cycles IEW is squashing
system.cpu.iew.iewBlockCycles                    4652                       # Number of cycles IEW is blocking
system.cpu.iew.iewUnblockCycles                    67                       # Number of cycles IEW is unblocking
system.cpu.iew.iewDispatchedInsts              124920                       # Number of instructions dispatched to IQ
system.cpu.iew.iewDispSquashedInsts              2524                       # Number of squashed instructions skipped by dispatch
system.cpu.iew.iewDispLoadInsts                 28484                       # Number of dispatched load instructions
system.cpu.iew.iewDispStoreInsts                15874                       # Number of dispatched store instructions
system.cpu.iew.iewDispNonSpecInsts                832                       # Number of dispatched non-speculative instructions
system.cpu.iew.iewIQFullEvents                     24                       # Number of times the IQ has become full, causing a stall
system.cpu.iew.iewLSQFullEvents                    31                       # Number of times the LSQ has become full, causing a stall
system.cpu.iew.memOrderViolationEvents             66                       # Number of memory order violations
system.cpu.iew.predictedTakenIncorrect           1432                       # Number of branches that were predicted taken incorrectly
system.cpu.iew.predictedNotTakenIncorrect          424                       # Number of branches that were predicted not taken incorrectly
system.cpu.iew.branchMispredicts                 1856                       # Number of branch mispredicts detected at execute
system.cpu.iew.iewExecutedInsts                115440                       # Number of executed instructions
system.cpu.iew.iewExecLoadInsts                 26401                       # Number of load instructions executed
system.cpu.iew.iewExecSquashedInsts              1812                       # Number of squashed instructions skipped in execute
system.cpu.iew.exec_swp                             0                       # number of swp insts executed
system.cpu.iew.exec_nop                             0                       # number of nop insts executed
system.cpu.iew.exec_refs                        41807                       # number of memory reference insts executed
system.cpu.iew.exec_branches                    17471                       # Number of branches executed
system.cpu.iew.exec_stores                      15406                       # Number of stores executed
system.cpu.iew.exec_rate                     0.840970                       # Inst execution rate
system.cpu.iew.wb_sent                         114653                       # cumulative count of insts sent to commit
system.cpu.iew.wb_count                        114013                       # cumulative count of insts written-back
system.cpu.iew.wb_producers                     63040                       # num instructions producing a value
system.cpu.iew.wb_consumers                     92790                       # num instructions consuming a value
system.cpu.iew.wb_rate                       0.830575                       # insts written-back per cycle
system.cpu.iew.wb_fanout                     0.679384                       # average fanout of values written-back
system.cpu.commit.commitSquashedInsts           15366                       # The number of squashed insts skipped by commit
system.cpu.commit.commitNonSpecStalls            1647                       # The number of times commit has been forced to stall to communicate backwards
system.cpu.commit.branchMispredicts              1824                       # The number of times a branch was mispredicted
system.cpu.commit.committed_per_cycle::samples       101457                       # Number of insts commited each cycle
system.cpu.commit.committed_per_cycle::mean     1.079797                       # Number of insts commited each cycle
system.cpu.commit.committed_per_cycle::stdev     1.216087                       # Number of insts commited each cycle
system.cpu.commit.committed_per_cycle::underflows            0      0.00%      0.00% # Number of insts commited each cycle
system.cpu.commit.committed_per_cycle::0        48353     47.66%     47.66% # Number of insts commited each cycle
system.cpu.commit.committed_per_cycle::1        19597     19.32%     66.97% # Number of insts commited each cycle
system.cpu.commit.committed_per_cycle::2        10565     10.41%     77.39% # Number of insts commited each cycle
system.cpu.commit.committed_per_cycle::3        22942     22.61%    100.00% # Number of insts commited each cycle
system.cpu.commit.committed_per_cycle::overflows            0      0.00%    100.00% # Number of insts commited each cycle
system.cpu.commit.committed_per_cycle::min_value            0                       # Number of insts commited each cycle
system.cpu.commit.committed_per_cycle::max_value            3                       # Number of insts commited each cycle
system.cpu.commit.committed_per_cycle::total       101457                       # Number of insts commited each cycle
system.cpu.commit.committedInsts                96017                       # Number of instructions committed
system.cpu.commit.committedOps                 109553                       # Number of ops (including micro ops) committed
system.cpu.commit.swp_count                         0                       # Number of s/w prefetches committed
system.cpu.commit.refs                          39010                       # Number of memory references committed
system.cpu.commit.loads                         24236                       # Number of loads committed
system.cpu.commit.membars                         818                       # Number of memory barriers committed
system.cpu.commit.branches                      16883                       # Number of branches committed
system.cpu.commit.vec_insts                         0                       # Number of committed Vector instructions.
system.cpu.commit.fp_insts                         16                       # Number of committed floating point instructions.
system.cpu.commit.int_insts                     96671                       # Number of committed integer instructions.
system.cpu.commit.function_calls                 1561                       # Number of function calls committed.
system.cpu.commit.op_class_0::No_OpClass            0      0.00%      0.00% # Class of committed instruction
system.cpu.commit.op_class_0::IntAlu            69960     63.86%     63.86% # Class of committed instruction
system.cpu.commit.op_class_0::IntMult             583      0.53%     64.39% # Class of committed instruction
system.cpu.commit.op_class_0::IntDiv                0      0.00%     64.39% # Class of committed instruction
system.cpu.commit.op_class_0::FloatAdd              0      0.00%     64.39% # Class of committed instruction
system.cpu.commit.op_class_0::FloatCmp              0      0.00%     64.39% # Class of committed instruction
system.cpu.commit.op_class_0::FloatCvt              0      0.00%     64.39% # Class of committed instruction
system.cpu.commit.op_class_0::FloatMult             0      0.00%     64.39% # Class of committed instruction
system.cpu.commit.op_class_0::FloatMultAcc            0      0.00%     64.39% # Class of committed instruction
system.cpu.commit.op_class_0::FloatDiv              0      0.00%     64.39% # Class of committed instruction
system.cpu.commit.op_class_0::FloatMisc             0      0.00%     64.39% # Class of committed instruction
system.cpu.commit.op_class_0::FloatSqrt             0      0.00%     64.39% # Class of committed instruction
system.cpu.commit.op_class_0::SimdAdd               0      0.00%     64.39% # Class of committed instruction
[...]
system.cpu.l2cache.ReadExReq_accesses::total           61                       # number of ReadExReq accesses(hits+misses)
system.cpu.l2cache.ReadSharedReq_accesses::.cpu.inst          347                       # number of ReadSharedReq accesses(hits+misses)
system.cpu.l2cache.ReadSharedReq_accesses::.cpu.data          137                       # number of ReadSharedReq accesses(hits+misses)
system.cpu.l2cache.ReadSharedReq_accesses::total          484                       # number of ReadSharedReq accesses(hits+misses)
system.cpu.l2cache.demand_accesses::.cpu.inst          347                       # number of demand (read+write) accesses
system.cpu.l2cache.demand_accesses::.cpu.data          198                       # number of demand (read+write) accesses
system.cpu.l2cache.demand_accesses::total          545                       # number of demand (read+write) accesses
system.cpu.l2cache.overall_accesses::.cpu.inst          347                       # number of overall (read+write) accesses
system.cpu.l2cache.overall_accesses::.cpu.data          198                       # number of overall (read+write) accesses
system.cpu.l2cache.overall_accesses::total          545                       # number of overall (read+write) accesses
system.cpu.l2cache.ReadExReq_miss_rate::.cpu.data            1                       # miss rate for ReadExReq accesses
system.cpu.l2cache.ReadExReq_miss_rate::total            1                       # miss rate for ReadExReq accesses
system.cpu.l2cache.ReadSharedReq_miss_rate::.cpu.inst     0.945245                       # miss rate for ReadSharedReq accesses
system.cpu.l2cache.ReadSharedReq_miss_rate::.cpu.data     0.846715                       # miss rate for ReadSharedReq accesses
system.cpu.l2cache.ReadSharedReq_miss_rate::total     0.917355                       # miss rate for ReadSharedReq accesses
system.cpu.l2cache.demand_miss_rate::.cpu.inst     0.945245                       # miss rate for demand accesses
system.cpu.l2cache.demand_miss_rate::.cpu.data     0.893939                       # miss rate for demand accesses
system.cpu.l2cache.demand_miss_rate::total     0.926606                       # miss rate for demand accesses
system.cpu.l2cache.overall_miss_rate::.cpu.inst     0.945245                       # miss rate for overall accesses
system.cpu.l2cache.overall_miss_rate::.cpu.data     0.893939                       # miss rate for overall accesses
system.cpu.l2cache.overall_miss_rate::total     0.926606                       # miss rate for overall accesses
system.cpu.l2cache.ReadExReq_avg_miss_latency::.cpu.data 77836.475410                       # average ReadExReq miss latency
system.cpu.l2cache.ReadExReq_avg_miss_latency::total 77836.475410                       # average ReadExReq miss latency
system.cpu.l2cache.ReadSharedReq_avg_miss_latency::.cpu.inst 78772.134146                       # average ReadSharedReq miss latency
system.cpu.l2cache.ReadSharedReq_avg_miss_latency::.cpu.data 79308.750000                       # average ReadSharedReq miss latency
system.cpu.l2cache.ReadSharedReq_avg_miss_latency::total 78912.331081                       # average ReadSharedReq miss latency
system.cpu.l2cache.demand_avg_miss_latency::.cpu.inst 78772.134146                       # average overall miss latency
system.cpu.l2cache.demand_avg_miss_latency::.cpu.data 78801.355932                       # average overall miss latency
system.cpu.l2cache.demand_avg_miss_latency::total 78782.376238                       # average overall miss latency
system.cpu.l2cache.overall_avg_miss_latency::.cpu.inst 78772.134146                       # average overall miss latency
system.cpu.l2cache.overall_avg_miss_latency::.cpu.data 78801.355932                       # average overall miss latency
system.cpu.l2cache.overall_avg_miss_latency::total 78782.376238                       # average overall miss latency
system.cpu.l2cache.blocked_cycles::no_mshrs            0                       # number of cycles access was blocked
system.cpu.l2cache.blocked_cycles::no_targets            0                       # number of cycles access was blocked
system.cpu.l2cache.blocked::no_mshrs                0                       # number of cycles access was blocked
system.cpu.l2cache.blocked::no_targets              0                       # number of cycles access was blocked
system.cpu.l2cache.avg_blocked_cycles::no_mshrs          nan                       # average number of cycles each access was blocked
system.cpu.l2cache.avg_blocked_cycles::no_targets          nan                       # average number of cycles each access was blocked
system.cpu.l2cache.ReadSharedReq_mshr_hits::.cpu.inst            3                       # number of ReadSharedReq MSHR hits
system.cpu.l2cache.ReadSharedReq_mshr_hits::.cpu.data            3                       # number of ReadSharedReq MSHR hits
system.cpu.l2cache.ReadSharedReq_mshr_hits::total            6                       # number of ReadSharedReq MSHR hits
system.cpu.l2cache.demand_mshr_hits::.cpu.inst            3                       # number of demand (read+write) MSHR hits
system.cpu.l2cache.demand_mshr_hits::.cpu.data            3                       # number of demand (read+write) MSHR hits
system.cpu.l2cache.demand_mshr_hits::total            6                       # number of demand (read+write) MSHR hits
system.cpu.l2cache.overall_mshr_hits::.cpu.inst            3                       # number of overall MSHR hits
system.cpu.l2cache.overall_mshr_hits::.cpu.data            3                       # number of overall MSHR hits
system.cpu.l2cache.overall_mshr_hits::total            6                       # number of overall MSHR hits
system.cpu.l2cache.ReadExReq_mshr_misses::.cpu.data           61                       # number of ReadExReq MSHR misses
system.cpu.l2cache.ReadExReq_mshr_misses::total           61                       # number of ReadExReq MSHR misses
system.cpu.l2cache.ReadSharedReq_mshr_misses::.cpu.inst          325                       # number of ReadSharedReq MSHR misses
system.cpu.l2cache.ReadSharedReq_mshr_misses::.cpu.data          113                       # number of ReadSharedReq MSHR misses
system.cpu.l2cache.ReadSharedReq_mshr_misses::total          438                       # number of ReadSharedReq MSHR misses
system.cpu.l2cache.demand_mshr_misses::.cpu.inst          325                       # number of demand (read+write) MSHR misses
system.cpu.l2cache.demand_mshr_misses::.cpu.data          174                       # number of demand (read+write) MSHR misses
system.cpu.l2cache.demand_mshr_misses::total          499                       # number of demand (read+write) MSHR misses
system.cpu.l2cache.overall_mshr_misses::.cpu.inst          325                       # number of overall MSHR misses
system.cpu.l2cache.overall_mshr_misses::.cpu.data          174                       # number of overall MSHR misses
system.cpu.l2cache.overall_mshr_misses::total          499                       # number of overall MSHR misses
system.cpu.l2cache.ReadExReq_mshr_miss_latency::.cpu.data      4217325                       # number of ReadExReq MSHR miss cycles
system.cpu.l2cache.ReadExReq_mshr_miss_latency::total      4217325                       # number of ReadExReq MSHR miss cycles
system.cpu.l2cache.ReadSharedReq_mshr_miss_latency::.cpu.inst     22818360                       # number of ReadSharedReq MSHR miss cycles
system.cpu.l2cache.ReadSharedReq_mshr_miss_latency::.cpu.data      8012265                       # number of ReadSharedReq MSHR miss cycles
system.cpu.l2cache.ReadSharedReq_mshr_miss_latency::total     30830625                       # number of ReadSharedReq MSHR miss cycles
system.cpu.l2cache.demand_mshr_miss_latency::.cpu.inst     22818360                       # number of demand (read+write) MSHR miss cycles
system.cpu.l2cache.demand_mshr_miss_latency::.cpu.data     12229590                       # number of demand (read+write) MSHR miss cycles
system.cpu.l2cache.demand_mshr_miss_latency::total     35047950                       # number of demand (read+write) MSHR miss cycles
system.cpu.l2cache.overall_mshr_miss_latency::.cpu.inst     22818360                       # number of overall MSHR miss cycles
system.cpu.l2cache.overall_mshr_miss_latency::.cpu.data     12229590                       # number of overall MSHR miss cycles
system.cpu.l2cache.overall_mshr_miss_latency::total     35047950                       # number of overall MSHR miss cycles
system.cpu.l2cache.ReadExReq_mshr_miss_rate::.cpu.data            1                       # mshr miss rate for ReadExReq accesses
system.cpu.l2cache.ReadExReq_mshr_miss_rate::total            1                       # mshr miss rate for ReadExReq accesses
system.cpu.l2cache.ReadSharedReq_mshr_miss_rate::.cpu.inst     0.936599                       # mshr miss rate for ReadSharedReq accesses
system.cpu.l2cache.ReadSharedReq_mshr_miss_rate::.cpu.data     0.824818                       # mshr miss rate for ReadSharedReq accesses
system.cpu.l2cache.ReadSharedReq_mshr_miss_rate::total     0.904959                       # mshr miss rate for ReadSharedReq accesses
system.cpu.l2cache.demand_mshr_miss_rate::.cpu.inst     0.936599                       # mshr miss rate for demand accesses
system.cpu.l2cache.demand_mshr_miss_rate::.cpu.data     0.878788                       # mshr miss rate for demand accesses
system.cpu.l2cache.demand_mshr_miss_rate::total     0.915596                       # mshr miss rate for demand accesses
system.cpu.l2cache.overall_mshr_miss_rate::.cpu.inst     0.936599                       # mshr miss rate for overall accesses
system.cpu.l2cache.overall_mshr_miss_rate::.cpu.data     0.878788                       # mshr miss rate for overall accesses
system.cpu.l2cache.overall_mshr_miss_rate::total     0.915596                       # mshr miss rate for overall accesses
system.cpu.l2cache.ReadExReq_avg_mshr_miss_latency::.cpu.data 69136.475410                       # average ReadExReq mshr miss latency
system.cpu.l2cache.ReadExReq_avg_mshr_miss_latency::total 69136.475410                       # average ReadExReq mshr miss latency
system.cpu.l2cache.ReadSharedReq_avg_mshr_miss_latency::.cpu.inst 70210.338462                       # average ReadSharedReq mshr miss latency
system.cpu.l2cache.ReadSharedReq_avg_mshr_miss_latency::.cpu.data        70905                       # average ReadSharedReq mshr miss latency
system.cpu.l2cache.ReadSharedReq_avg_mshr_miss_latency::total 70389.554795                       # average ReadSharedReq mshr miss latency
system.cpu.l2cache.demand_avg_mshr_miss_latency::.cpu.inst 70210.338462                       # average overall mshr miss latency
system.cpu.l2cache.demand_avg_mshr_miss_latency::.cpu.data        70285                       # average overall mshr miss latency
system.cpu.l2cache.demand_avg_mshr_miss_latency::total 70236.372745                       # average overall mshr miss latency
system.cpu.l2cache.overall_avg_mshr_miss_latency::.cpu.inst 70210.338462                       # average overall mshr miss latency
system.cpu.l2cache.overall_avg_mshr_miss_latency::.cpu.data        70285                       # average overall mshr miss latency
system.cpu.l2cache.overall_avg_mshr_miss_latency::total 70236.372745                       # average overall mshr miss latency
system.cpu.l2cache.replacements                     0                       # number of replacements
system.l2bus.snoop_filter.tot_requests            554                       # Total number of requests made to the snoop filter.
system.l2bus.snoop_filter.hit_single_requests           54                       # Number of requests hitting in the snoop filter with a single holder of the requested data.
system.l2bus.snoop_filter.hit_multi_requests            1                       # Number of requests hitting in the snoop filter with multiple (>1) holders of the requested data.
system.l2bus.snoop_filter.tot_snoops                0                       # Total number of snoops made to the snoop filter.
system.l2bus.snoop_filter.hit_single_snoops            0                       # Number of snoops hitting in the snoop filter with a single holder of the requested data.
system.l2bus.snoop_filter.hit_multi_snoops            0                       # Number of snoops hitting in the snoop filter with multiple (>1) holders of the requested data.
system.l2bus.pwrStateResidencyTicks::UNDEFINED     59712015                       # Cumulative time (in ticks) in various power states
system.l2bus.trans_dist::ReadResp                 483                       # Transaction distribution
system.l2bus.trans_dist::WritebackDirty             1                       # Transaction distribution
system.l2bus.trans_dist::CleanEvict                 8                       # Transaction distribution
system.l2bus.trans_dist::ReadExReq                 61                       # Transaction distribution
system.l2bus.trans_dist::ReadExResp                61                       # Transaction distribution
system.l2bus.trans_dist::ReadSharedReq            484                       # Transaction distribution
system.l2bus.pkt_count_system.cpu.icache.mem_side::system.cpu.l2cache.cpu_side          698                       # Packet count per connected master and slave (bytes)
system.l2bus.pkt_count_system.cpu.dcache.mem_side::system.cpu.l2cache.cpu_side          400                       # Packet count per connected master and slave (bytes)
system.l2bus.pkt_count::total                    1098                       # Packet count per connected master and slave (bytes)
system.l2bus.pkt_size_system.cpu.icache.mem_side::system.cpu.l2cache.cpu_side        22144                       # Cumulative packet size per connected master and slave (bytes)
system.l2bus.pkt_size_system.cpu.dcache.mem_side::system.cpu.l2cache.cpu_side        12736                       # Cumulative packet size per connected master and slave (bytes)
system.l2bus.pkt_size::total                    34880                       # Cumulative packet size per connected master and slave (bytes)
system.l2bus.snoops                                 0                       # Total snoops (count)
system.l2bus.snoopTraffic                           0                       # Total snoop traffic (bytes)
system.l2bus.snoop_fanout::samples                545                       # Request fanout histogram
system.l2bus.snoop_fanout::mean              0.084404                       # Request fanout histogram
system.l2bus.snoop_fanout::stdev             0.278248                       # Request fanout histogram
system.l2bus.snoop_fanout::underflows               0      0.00%      0.00% # Request fanout histogram
system.l2bus.snoop_fanout::0                      499     91.56%     91.56% # Request fanout histogram
system.l2bus.snoop_fanout::1                       46      8.44%    100.00% # Request fanout histogram
system.l2bus.snoop_fanout::2                        0      0.00%    100.00% # Request fanout histogram
system.l2bus.snoop_fanout::overflows                0      0.00%    100.00% # Request fanout histogram
system.l2bus.snoop_fanout::min_value                0                       # Request fanout histogram
system.l2bus.snoop_fanout::max_value                1                       # Request fanout histogram
system.l2bus.snoop_fanout::total                  545                       # Request fanout histogram
system.l2bus.reqLayer0.occupancy               242730                       # Layer occupancy (ticks)
system.l2bus.reqLayer0.utilization                0.4                       # Layer utilization (%)
system.l2bus.respLayer0.occupancy              754286                       # Layer occupancy (ticks)
system.l2bus.respLayer0.utilization               1.3                       # Layer utilization (%)
system.l2bus.respLayer1.occupancy              431952                       # Layer occupancy (ticks)
system.l2bus.respLayer1.utilization               0.7                       # Layer utilization (%)
system.membus.snoop_filter.tot_requests           498                       # Total number of requests made to the snoop filter.
system.membus.snoop_filter.hit_single_requests            0                       # Number of requests hitting in the snoop filter with a single holder of the requested data.
system.membus.snoop_filter.hit_multi_requests            0                       # Number of requests hitting in the snoop filter with multiple (>1) holders of the requested data.
system.membus.snoop_filter.tot_snoops               0                       # Total number of snoops made to the snoop filter.
system.membus.snoop_filter.hit_single_snoops            0                       # Number of snoops hitting in the snoop filter with a single holder of the requested data.
system.membus.snoop_filter.hit_multi_snoops            0                       # Number of snoops hitting in the snoop filter with multiple (>1) holders of the requested data.
system.membus.pwrStateResidencyTicks::UNDEFINED     59712015                       # Cumulative time (in ticks) in various power states
system.membus.trans_dist::ReadResp                437                       # Transaction distribution
system.membus.trans_dist::ReadExReq                61                       # Transaction distribution
system.membus.trans_dist::ReadExResp               61                       # Transaction distribution
system.membus.trans_dist::ReadSharedReq           437                       # Transaction distribution
system.membus.pkt_count_system.cpu.l2cache.mem_side::system.mem_ctrl.port          996                       # Packet count per connected master and slave (bytes)
system.membus.pkt_count::total                    996                       # Packet count per connected master and slave (bytes)
system.membus.pkt_size_system.cpu.l2cache.mem_side::system.mem_ctrl.port        31872                       # Cumulative packet size per connected master and slave (bytes)
system.membus.pkt_size::total                   31872                       # Cumulative packet size per connected master and slave (bytes)
system.membus.snoops                                0                       # Total snoops (count)
system.membus.snoopTraffic                          0                       # Total snoop traffic (bytes)
system.membus.snoop_fanout::samples               498                       # Request fanout histogram
system.membus.snoop_fanout::mean                    0                       # Request fanout histogram
system.membus.snoop_fanout::stdev                   0                       # Request fanout histogram
system.membus.snoop_fanout::underflows              0      0.00%      0.00% # Request fanout histogram
system.membus.snoop_fanout::0                     498    100.00%    100.00% # Request fanout histogram
system.membus.snoop_fanout::1                       0      0.00%    100.00% # Request fanout histogram
system.membus.snoop_fanout::overflows               0      0.00%    100.00% # Request fanout histogram
system.membus.snoop_fanout::min_value               0                       # Request fanout histogram
system.membus.snoop_fanout::max_value               0                       # Request fanout histogram
system.membus.snoop_fanout::total                 498                       # Request fanout histogram
system.membus.reqLayer0.occupancy              216630                       # Layer occupancy (ticks)
system.membus.reqLayer0.utilization               0.4                       # Layer utilization (%)
system.membus.respLayer0.occupancy            1163640                       # Layer occupancy (ticks)
system.membus.respLayer0.utilization              1.9                       # Layer utilization (%)

---------- End Simulation Statistics   ----------
