
---------- Begin Simulation Statistics ----------
sim_seconds                                  0.000030                       # Number of seconds simulated
sim_ticks                                    30321675                       # Number of ticks simulated
final_tick                                   30321675                       # Number of ticks from beginning of simulation (restored from checkpoints and never reset)
sim_freq                                 1000000000000                       # Frequency of simulated ticks
host_inst_rate                                  50293                       # Simulator instruction rate (inst/s)
host_op_rate                                    55683                       # Simulator op (including micro ops) rate (op/s)
host_tick_rate                               91834522                       # Simulator tick rate (ticks/s)
host_mem_usage                                 673996                       # Number of bytes of host memory used
host_seconds                                     0.33                       # Real time elapsed on the host
sim_insts                                       16605                       # Number of instructions simulated
sim_ops                                         18385                       # Number of ops (including micro ops) simulated
system.clk_domain.voltage_domain.voltage            1                       # Voltage in Volts
system.clk_domain.clock                           435                       # Clock period in ticks
system.mem_ctrl.pwrStateResidencyTicks::UNDEFINED     30321675                       # Cumulative time (in ticks) in various power states
system.mem_ctrl.bytes_read::.cpu.inst           23616                       # Number of bytes read from this memory
system.mem_ctrl.bytes_read::.cpu.data           12864                       # Number of bytes read from this memory
system.mem_ctrl.bytes_read::total               36480                       # Number of bytes read from this memory
system.mem_ctrl.bytes_inst_read::.cpu.inst        23616                       # Number of instructions bytes read from this memory
system.mem_ctrl.bytes_inst_read::total          23616                       # Number of instructions bytes read from this memory
system.mem_ctrl.num_reads::.cpu.inst              369                       # Number of read requests responded to by this memory
system.mem_ctrl.num_reads::.cpu.data              201                       # Number of read requests responded to by this memory
system.mem_ctrl.num_reads::total                  570                       # Number of read requests responded to by this memory
system.mem_ctrl.bw_read::.cpu.inst          778848794                       # Total read bandwidth from this memory (bytes/s)
system.mem_ctrl.bw_read::.cpu.data          424250969                       # Total read bandwidth from this memory (bytes/s)
system.mem_ctrl.bw_read::total             1203099763                       # Total read bandwidth from this memory (bytes/s)
system.mem_ctrl.bw_inst_read::.cpu.inst     778848794                       # Instruction read bandwidth from this memory (bytes/s)
system.mem_ctrl.bw_inst_read::total         778848794                       # Instruction read bandwidth from this memory (bytes/s)
system.mem_ctrl.bw_total::.cpu.inst         778848794                       # Total bandwidth to/from this memory (bytes/s)
system.mem_ctrl.bw_total::.cpu.data         424250969                       # Total bandwidth to/from this memory (bytes/s)
system.mem_ctrl.bw_total::total            1203099763                       # Total bandwidth to/from this memory (bytes/s)
system.mem_ctrl.avgPriority_.cpu.inst::samples       369.00                       # Average QoS priority value for accepted requests
system.mem_ctrl.avgPriority_.cpu.data::samples       201.00                       # Average QoS priority value for accepted requests
system.mem_ctrl.priorityMinLatency       0.000000018750                       # per QoS priority minimum request to response latency (s)
system.mem_ctrl.priorityMaxLatency       0.000000508640                       # per QoS priority maximum request to response latency (s)
system.mem_ctrl.numReadWriteTurnArounds             0                       # Number of turnarounds from READ to WRITE
system.mem_ctrl.numWriteReadTurnArounds             0                       # Number of turnarounds from WRITE to READ
system.mem_ctrl.numStayReadState                 1131                       # Number of times bus staying in READ state
system.mem_ctrl.numStayWriteState                   0                       # Number of times bus staying in WRITE state
system.mem_ctrl.readReqs                          570                       # Number of read requests accepted
system.mem_ctrl.writeReqs                           0                       # Number of write requests accepted
system.mem_ctrl.readBursts                        570                       # Number of DRAM read bursts, including those serviced by the write queue
system.mem_ctrl.writeBursts                         0                       # Number of DRAM write bursts, including those merged in the write queue
system.mem_ctrl.bytesReadDRAM                   36480                       # Total number of bytes read from DRAM
system.mem_ctrl.bytesReadWrQ                        0                       # Total number of bytes read from write queue
system.mem_ctrl.bytesWritten                        0                       # Total number of bytes written to DRAM
system.mem_ctrl.bytesReadSys                    36480                       # Total read bytes from the system interface side
system.mem_ctrl.bytesWrittenSys                     0                       # Total written bytes from the system interface side
system.mem_ctrl.servicedByWrQ                       0                       # Number of DRAM read bursts serviced by the write queue
system.mem_ctrl.mergedWrBursts                      0                       # Number of DRAM write bursts merged with an existing one
system.mem_ctrl.neitherReadNorWriteReqs             0                       # Number of requests that are neither read nor write
system.mem_ctrl.perBankRdBursts::0                 82                       # Per bank write bursts
system.mem_ctrl.perBankRdBursts::1                  8                       # Per bank write bursts
system.mem_ctrl.perBankRdBursts::2                 26                       # Per bank write bursts
system.mem_ctrl.perBankRdBursts::3                 55                       # Per bank write bursts
system.mem_ctrl.perBankRdBursts::4                 80                       # Per bank write bursts
system.mem_ctrl.perBankRdBursts::5                 32                       # Per bank write bursts
system.mem_ctrl.perBankRdBursts::6                 47                       # Per bank write bursts
system.mem_ctrl.perBankRdBursts::7                 48                       # Per bank write bursts
system.mem_ctrl.perBankRdBursts::8                 13                       # Per bank write bursts
system.mem_ctrl.perBankRdBursts::9                 58                       # Per bank write bursts
system.mem_ctrl.perBankRdBursts::10                15                       # Per bank write bursts
system.mem_ctrl.perBankRdBursts::11                16                       # Per bank write bursts
system.mem_ctrl.perBankRdBursts::12                14                       # Per bank write bursts
system.mem_ctrl.perBankRdBursts::13                18                       # Per bank write bursts
system.mem_ctrl.perBankRdBursts::14                50                       # Per bank write bursts
system.mem_ctrl.perBankRdBursts::15                 8                       # Per bank write bursts
system.mem_ctrl.perBankWrBursts::0                  0                       # Per bank write bursts
system.mem_ctrl.perBankWrBursts::1                  0                       # Per bank write bursts
system.mem_ctrl.perBankWrBursts::2                  0                       # Per bank write bursts
system.mem_ctrl.perBankWrBursts::3                  0                       # Per bank write bursts
system.mem_ctrl.perBankWrBursts::4                  0                       # Per bank write bursts
system.mem_ctrl.perBankWrBursts::5                  0                       # Per bank write bursts
system.mem_ctrl.perBankWrBursts::6                  0                       # Per bank write bursts
system.mem_ctrl.perBankWrBursts::7                  0                       # Per bank write bursts
system.mem_ctrl.perBankWrBursts::8                  0                       # Per bank write bursts
system.mem_ctrl.perBankWrBursts::9                  0                       # Per bank write bursts
system.mem_ctrl.perBankWrBursts::10                 0                       # Per bank write bursts
system.mem_ctrl.perBankWrBursts::11                 0                       # Per bank write bursts
system.mem_ctrl.perBankWrBursts::12                 0                       # Per bank write bursts
system.mem_ctrl.perBankWrBursts::13                 0                       # Per bank write bursts
system.mem_ctrl.perBankWrBursts::14                 0                       # Per bank write bursts
system.mem_ctrl.perBankWrBursts::15                 0                       # Per bank write bursts
system.mem_ctrl.numRdRetry                          0                       # Number of times read queue was full causing retry
system.mem_ctrl.numWrRetry                          0                       # Number of times write queue was full causing retry
system.mem_ctrl.totGap                       30209010                       # Total gap between requests
system.mem_ctrl.readPktSize::0                      0                       # Read request sizes (log2)
system.mem_ctrl.readPktSize::1                      0                       # Read request sizes (log2)
system.mem_ctrl.readPktSize::2                      0                       # Read request sizes (log2)
system.mem_ctrl.readPktSize::3                      0                       # Read request sizes (log2)
system.mem_ctrl.readPktSize::4                      0                       # Read request sizes (log2)
system.mem_ctrl.readPktSize::5                      0                       # Read request sizes (log2)
system.mem_ctrl.readPktSize::6                    570                       # Read request sizes (log2)
system.mem_ctrl.writePktSize::0                     0                       # Write request sizes (log2)
system.mem_ctrl.writePktSize::1                     0                       # Write request sizes (log2)
system.mem_ctrl.writePktSize::2                     0                       # Write request sizes (log2)
system.mem_ctrl.writePktSize::3                     0                       # Write request sizes (log2)
system.mem_ctrl.writePktSize::4                     0                       # Write request sizes (log2)
system.mem_ctrl.writePktSize::5                     0                       # Write request sizes (log2)
system.mem_ctrl.writePktSize::6                     0                       # Write request sizes (log2)
system.mem_ctrl.rdQLenPdf::0                      321                       # What read queue length does an incoming req see
system.mem_ctrl.rdQLenPdf::1                      176                       # What read queue length does an incoming req see
system.mem_ctrl.rdQLenPdf::2                       53                       # What read queue length does an incoming req see
system.mem_ctrl.rdQLenPdf::3                       12                       # What read queue length does an incoming req see
system.mem_ctrl.rdQLenPdf::4                        6                       # What read queue length does an incoming req see
system.mem_ctrl.rdQLenPdf::5                        1                       # What read queue length does an incoming req see
system.mem_ctrl.rdQLenPdf::6                        1                       # What read queue length does an incoming req see
system.mem_ctrl.rdQLenPdf::7                        0                       # What read queue length does an incoming req see
system.mem_ctrl.rdQLenPdf::8                        0                       # What read queue length does an incoming req see
system.mem_ctrl.rdQLenPdf::9                        0                       # What read queue length does an incoming req see
system.mem_ctrl.rdQLenPdf::10                       0                       # What read queue length does an incoming req see
system.mem_ctrl.rdQLenPdf::11                       0                       # What read queue length does an incoming req see
system.mem_ctrl.rdQLenPdf::12                       0                       # What read queue length does an incoming req see
system.mem_ctrl.rdQLenPdf::13                       0                       # What read queue length does an incoming req see
system.mem_ctrl.rdQLenPdf::14                       0                       # What read queue length does an incoming req see
system.mem_ctrl.rdQLenPdf::15                       0                       # What read queue length does an incoming req see
system.mem_ctrl.rdQLenPdf::16                       0                       # What read queue length does an incoming req see
system.mem_ctrl.rdQLenPdf::17                       0                       # What read queue length does an incoming req see
system.mem_ctrl.rdQLenPdf::18                       0                       # What read queue length does an incoming req see
system.mem_ctrl.rdQLenPdf::19                       0                       # What read queue length does an incoming req see
system.mem_ctrl.rdQLenPdf::20                       0                       # What read queue length does an incoming req see
system.mem_ctrl.rdQLenPdf::21                       0                       # What read queue length does an incoming req see
system.mem_ctrl.rdQLenPdf::22                       0                       # What read queue length does an incoming req see
system.mem_ctrl.rdQLenPdf::23                       0                       # What read queue length does an incoming req see
system.mem_ctrl.rdQLenPdf::24                       0                       # What read queue length does an incoming req see
system.mem_ctrl.rdQLenPdf::25                       0                       # What read queue length does an incoming req see
system.mem_ctrl.rdQLenPdf::26                       0                       # What read queue length does an incoming req see
system.mem_ctrl.rdQLenPdf::27                       0                       # What read queue length does an incoming req see
system.mem_ctrl.rdQLenPdf::28                       0                       # What read queue length does an incoming req see
system.mem_ctrl.rdQLenPdf::29                       0                       # What read queue length does an incoming req see
system.mem_ctrl.rdQLenPdf::30                       0                       # What read queue length does an incoming req see
system.mem_ctrl.rdQLenPdf::31                       0                       # What read queue length does an incoming req see
system.mem_ctrl.wrQLenPdf::0                        0                       # What write queue length does an incoming req see
system.mem_ctrl.wrQLenPdf::1                        0                       # What write queue length does an incoming req see
system.mem_ctrl.wrQLenPdf::2                        0                       # What write queue length does an incoming req see
system.mem_ctrl.wrQLenPdf::3                        0                       # What write queue length does an incoming req see
system.mem_ctrl.wrQLenPdf::4                        0                       # What write queue length does an incoming req see
system.mem_ctrl.wrQLenPdf::5                        0                       # What write queue length does an incoming req see
system.mem_ctrl.wrQLenPdf::6                        0                       # What write queue length does an incoming req see
system.mem_ctrl.wrQLenPdf::7                        0                       # What write queue length does an incoming req see
system.mem_ctrl.wrQLenPdf::8                        0                       # What write queue length does an incoming req see
system.mem_ctrl.wrQLenPdf::9                        0                       # What write queue length does an incoming req see
system.mem_ctrl.wrQLenPdf::10                       0                       # What write queue length does an incoming req see
system.mem_ctrl.wrQLenPdf::11                       0                       # What write queue length does an incoming req see
system.mem_ctrl.wrQLenPdf::12                       0                       # What write queue length does an incoming req see
system.mem_ctrl.wrQLenPdf::13                       0                       # What write queue length does an incoming req see
system.mem_ctrl.wrQLenPdf::14                       0                       # What write queue length does an incoming req see
system.mem_ctrl.wrQLenPdf::15                       0                       # What write queue length does an incoming req see
system.mem_ctrl.wrQLenPdf::16                       0                       # What write queue length does an incoming req see
system.mem_ctrl.wrQLenPdf::17                       0                       # What write queue length does an incoming req see
system.mem_ctrl.wrQLenPdf::18                       0                       # What write queue length does an incoming req see
system.mem_ctrl.wrQLenPdf::19                       0                       # What write queue length does an incoming req see
system.mem_ctrl.wrQLenPdf::20                       0                       # What write queue length does an incoming req see
system.mem_ctrl.wrQLenPdf::21                       0                       # What write queue length does an incoming req see
system.mem_ctrl.wrQLenPdf::22                       0                       # What write queue length does an incoming req see
system.mem_ctrl.wrQLenPdf::23                       0                       # What write queue length does an incoming req see
system.mem_ctrl.wrQLenPdf::24                       0                       # What write queue length does an incoming req see
system.mem_ctrl.wrQLenPdf::25                       0                       # What write queue length does an incoming req see
system.mem_ctrl.wrQLenPdf::26                       0                       # What write queue length does an incoming req see
system.mem_ctrl.wrQLenPdf::27                       0                       # What write queue length does an incoming req see
system.mem_ctrl.wrQLenPdf::28                       0                       # What write queue length does an incoming req see
system.mem_ctrl.wrQLenPdf::29                       0                       # What write queue length does an incoming req see
system.mem_ctrl.wrQLenPdf::30                       0                       # What write queue length does an incoming req see
system.mem_ctrl.wrQLenPdf::31                       0                       # What write queue length does an incoming req see
system.mem_ctrl.wrQLenPdf::32                       0                       # What write queue length does an incoming req see
system.mem_ctrl.wrQLenPdf::33                       0                       # What write queue length does an incoming req see
system.mem_ctrl.wrQLenPdf::34                       0                       # What write queue length does an incoming req see
system.mem_ctrl.wrQLenPdf::35                       0                       # What write queue length does an incoming req see
system.mem_ctrl.wrQLenPdf::36                       0                       # What write queue length does an incoming req see
system.mem_ctrl.wrQLenPdf::37                       0                       # What write queue length does an incoming req see
system.mem_ctrl.wrQLenPdf::38                       0                       # What write queue length does an incoming req see
system.mem_ctrl.wrQLenPdf::39                       0                       # What write queue length does an incoming req see
system.mem_ctrl.wrQLenPdf::40                       0                       # What write queue length does an incoming req see
system.mem_ctrl.wrQLenPdf::41                       0                       # What write queue length does an incoming req see
system.mem_ctrl.wrQLenPdf::42                       0                       # What write queue length does an incoming req see
system.mem_ctrl.wrQLenPdf::43                       0                       # What write queue length does an incoming req see
system.mem_ctrl.wrQLenPdf::44                       0                       # What write queue length does an incoming req see
system.mem_ctrl.wrQLenPdf::45                       0                       # What write queue length does an incoming req see
system.mem_ctrl.wrQLenPdf::46                       0                       # What write queue length does an incoming req see
system.mem_ctrl.wrQLenPdf::47                       0                       # What write queue length does an incoming req see
system.mem_ctrl.wrQLenPdf::48                       0                       # What write queue length does an incoming req see
system.mem_ctrl.wrQLenPdf::49                       0                       # What write queue length does an incoming req see
system.mem_ctrl.wrQLenPdf::50                       0                       # What write queue length does an incoming req see
system.mem_ctrl.wrQLenPdf::51                       0                       # What write queue length does an incoming req see
system.mem_ctrl.wrQLenPdf::52                       0                       # What write queue length does an incoming req see
system.mem_ctrl.wrQLenPdf::53                       0                       # What write queue length does an incoming req see
system.mem_ctrl.wrQLenPdf::54                       0                       # What write queue length does an incoming req see
system.mem_ctrl.wrQLenPdf::55                       0                       # What write queue length does an incoming req see
system.mem_ctrl.wrQLenPdf::56                       0                       # What write queue length does an incoming req see
system.mem_ctrl.wrQLenPdf::57                       0                       # What write queue length does an incoming req see
system.mem_ctrl.wrQLenPdf::58                       0                       # What write queue length does an incoming req see
system.mem_ctrl.wrQLenPdf::59                       0                       # What write queue length does an incoming req see
system.mem_ctrl.wrQLenPdf::60                       0                       # What write queue length does an incoming req see
system.mem_ctrl.wrQLenPdf::61                       0                       # What write queue length does an incoming req see
system.mem_ctrl.wrQLenPdf::62                       0                       # What write queue length does an incoming req see
system.mem_ctrl.wrQLenPdf::63                       0                       # What write queue length does an incoming req see
system.mem_ctrl.bytesPerActivate::samples           93                       # Bytes accessed per row activation
system.mem_ctrl.bytesPerActivate::mean     360.602151                       # Bytes accessed per row activation
system.mem_ctrl.bytesPerActivate::gmean    220.551755                       # Bytes accessed per row activation
system.mem_ctrl.bytesPerActivate::stdev    343.198736                       # Bytes accessed per row activation
system.mem_ctrl.bytesPerActivate::0-127            28     30.11%     30.11% # Bytes accessed per row activation
system.mem_ctrl.bytesPerActivate::128-255           19     20.43%     50.54% # Bytes accessed per row activation
system.mem_ctrl.bytesPerActivate::256-383           13     13.98%     64.52% # Bytes accessed per row activation
system.mem_ctrl.bytesPerActivate::384-511            8      8.60%     73.12% # Bytes accessed per row activation
system.mem_ctrl.bytesPerActivate::512-639            4      4.30%     77.42% # Bytes accessed per row activation
system.mem_ctrl.bytesPerActivate::640-767            1      1.08%     78.49% # Bytes accessed per row activation
system.mem_ctrl.bytesPerActivate::768-895            6      6.45%     84.95% # Bytes accessed per row activation
system.mem_ctrl.bytesPerActivate::896-1023            1      1.08%     86.02% # Bytes accessed per row activation
system.mem_ctrl.bytesPerActivate::1024-1151           13     13.98%    100.00% # Bytes accessed per row activation
system.mem_ctrl.bytesPerActivate::total            93                       # Bytes accessed per row activation
system.mem_ctrl.masterReadBytes::.cpu.inst        23616                       # Per-master bytes read from memory
system.mem_ctrl.masterReadBytes::.cpu.data        12864                       # Per-master bytes read from memory
system.mem_ctrl.masterReadRate::.cpu.inst 778848793.808389544487                       # Per-master bytes read from memory rate (Bytes/sec)
system.mem_ctrl.masterReadRate::.cpu.data 424250968.985057711601                       # Per-master bytes read from memory rate (Bytes/sec)
system.mem_ctrl.masterReadAccesses::.cpu.inst          369                       # Per-master read serviced memory accesses
system.mem_ctrl.masterReadAccesses::.cpu.data          201                       # Per-master read serviced memory accesses
system.mem_ctrl.masterReadTotalLat::.cpu.inst     11702950                       # Per-master read total memory access latency
system.mem_ctrl.masterReadTotalLat::.cpu.data      6649880                       # Per-master read total memory access latency
system.mem_ctrl.masterReadAvgLat::.cpu.inst     31715.31                       # Per-master read average memory access latency
system.mem_ctrl.masterReadAvgLat::.cpu.data     33083.98                       # Per-master read average memory access latency
system.mem_ctrl.totQLat                       7665330                       # Total ticks spent queuing
system.mem_ctrl.totMemAccLat                 18352830                       # Total ticks spent from burst creation until serviced by the DRAM
system.mem_ctrl.totBusLat                     2850000                       # Total ticks spent in databus transfers
system.mem_ctrl.avgQLat                      13447.95                       # Average queueing delay per DRAM burst
system.mem_ctrl.avgBusLat                     5000.00                       # Average bus latency per DRAM burst
system.mem_ctrl.avgMemAccLat                 32197.95                       # Average memory access latency per DRAM burst
system.mem_ctrl.avgRdBW                       1203.10                       # Average DRAM read bandwidth in MiByte/s
system.mem_ctrl.avgWrBW                          0.00                       # Average achieved write bandwidth in MiByte/s
system.mem_ctrl.avgRdBWSys                    1203.10                       # Average system read bandwidth in MiByte/s
system.mem_ctrl.avgWrBWSys                       0.00                       # Average system write bandwidth in MiByte/s
system.mem_ctrl.peakBW                       12800.00                       # Theoretical peak bandwidth in MiByte/s
system.mem_ctrl.busUtil                          9.40                       # Data bus utilization in percentage
system.mem_ctrl.busUtilRead                      9.40                       # Data bus utilization in percentage for reads
system.mem_ctrl.busUtilWrite                     0.00                       # Data bus utilization in percentage for writes
system.mem_ctrl.avgRdQLen                        1.71                       # Average read queue length when enqueuing
system.mem_ctrl.avgWrQLen                        0.00                       # Average write queue length when enqueuing
system.mem_ctrl.readRowHits                       467                       # Number of row buffer hits during reads
system.mem_ctrl.writeRowHits                        0                       # Number of row buffer hits during writes
system.mem_ctrl.readRowHitRate                  81.93                       # Row buffer hit rate for reads
system.mem_ctrl.writeRowHitRate                   nan                       # Row buffer hit rate for writes
system.mem_ctrl.avgGap                       52998.26                       # Average gap between requests
system.mem_ctrl.pageHitRate                     81.93                       # Row buffer hit rate, read and write combined
system.mem_ctrl_0.actEnergy                    471240                       # Energy for activate commands per rank (pJ)
system.mem_ctrl_0.preEnergy                    231495                       # Energy for precharge commands per rank (pJ)
system.mem_ctrl_0.readEnergy                  2698920                       # Energy for read commands per rank (pJ)
system.mem_ctrl_0.writeEnergy                       0                       # Energy for write commands per rank (pJ)
system.mem_ctrl_0.refreshEnergy          1843920.000000                       # Energy for refresh commands per rank (pJ)
system.mem_ctrl_0.actBackEnergy               4259610                       # Energy for active background per rank (pJ)
system.mem_ctrl_0.preBackEnergy                 39360                       # Energy for precharge background per rank (pJ)
system.mem_ctrl_0.actPowerDownEnergy          9469980                       # Energy for active power-down per rank (pJ)
system.mem_ctrl_0.prePowerDownEnergy            42720                       # Energy for precharge power-down per rank (pJ)
system.mem_ctrl_0.selfRefreshEnergy                 0                       # Energy for self refresh per rank (pJ)
system.mem_ctrl_0.totalEnergy                19057245                       # Total energy per rank (pJ)
system.mem_ctrl_0.averagePower             628.502383                       # Core power per rank (mW)
system.mem_ctrl_0.totalIdleTime              20805885                       # Total Idle time Per DRAM Rank
system.mem_ctrl_0.memoryStateTime::IDLE         19050                       # Time in different power states
system.mem_ctrl_0.memoryStateTime::REF         780000                       # Time in different power states
system.mem_ctrl_0.memoryStateTime::SREF             0                       # Time in different power states
system.mem_ctrl_0.memoryStateTime::PRE_PDN       110945                       # Time in different power states
system.mem_ctrl_0.memoryStateTime::ACT        8641875                       # Time in different power states
system.mem_ctrl_0.memoryStateTime::ACT_PDN     20769805                       # Time in different power states
system.mem_ctrl_1.actEnergy                    264180                       # Energy for activate commands per rank (pJ)
system.mem_ctrl_1.preEnergy                    121440                       # Energy for precharge commands per rank (pJ)
system.mem_ctrl_1.readEnergy                  1370880                       # Energy for read commands per rank (pJ)
system.mem_ctrl_1.writeEnergy                       0                       # Energy for write commands per rank (pJ)
system.mem_ctrl_1.refreshEnergy          1843920.000000                       # Energy for refresh commands per rank (pJ)
system.mem_ctrl_1.actBackEnergy               2442450                       # Energy for active background per rank (pJ)
system.mem_ctrl_1.preBackEnergy                174720                       # Energy for precharge background per rank (pJ)
system.mem_ctrl_1.actPowerDownEnergy         10976490                       # Energy for active power-down per rank (pJ)
system.mem_ctrl_1.prePowerDownEnergy           168960                       # Energy for precharge power-down per rank (pJ)
system.mem_ctrl_1.selfRefreshEnergy                 0                       # Energy for self refresh per rank (pJ)
system.mem_ctrl_1.totalEnergy                17363040                       # Total energy per rank (pJ)
system.mem_ctrl_1.averagePower             572.627996                       # Core power per rank (mW)
system.mem_ctrl_1.totalIdleTime              24204265                       # Total Idle time Per DRAM Rank
system.mem_ctrl_1.memoryStateTime::IDLE        343815                       # Time in different power states
system.mem_ctrl_1.memoryStateTime::REF         780000                       # Time in different power states
system.mem_ctrl_1.memoryStateTime::SREF             0                       # Time in different power states
system.mem_ctrl_1.memoryStateTime::PRE_PDN       439505                       # Time in different power states
system.mem_ctrl_1.memoryStateTime::ACT        4686005                       # Time in different power states
system.mem_ctrl_1.memoryStateTime::ACT_PDN     24072350                       # Time in different power states
system.pwrStateResidencyTicks::UNDEFINED     30321675                       # Cumulative time (in ticks) in various power states
system.cpu.branchPred.lookups                    4282                       # Number of BP lookups
system.cpu.branchPred.condPredicted              2921                       # Number of conditional branches predicted
system.cpu.branchPred.condIncorrect               715                       # Number of conditional branches incorrect
system.cpu.branchPred.BTBLookups                 3430                       # Number of BTB lookups
system.cpu.branchPred.BTBHits                    1568                       # Number of BTB hits
system.cpu.branchPred.BTBCorrect                    0                       # Number of correct BTB predictions (this stat may not work properly.
system.cpu.branchPred.BTBHitPct             45.714286                       # BTB Hit Percentage
system.cpu.branchPred.usedRAS                     453                       # Number of times the RAS was used to get a target.
system.cpu.branchPred.RASInCorrect                 42                       # Number of incorrect RAS predictions.
system.cpu.branchPred.indirectLookups             204                       # Number of indirect predictor lookups.
system.cpu.branchPred.indirectHits                 29                       # Number of indirect target hits.
system.cpu.branchPred.indirectMisses              175                       # Number of indirect misses.
system.cpu.branchPredindirectMispredicted           84                       # Number of mispredicted indirect branches.
system.cpu.dstage2_mmu.stage2_tlb.walker.pwrStateResidencyTicks::UNDEFINED     30321675                       # Cumulative time (in ticks) in various power states
system.cpu.dstage2_mmu.stage2_tlb.walker.walks            0                       # Table walker walks requested
system.cpu.dstage2_mmu.stage2_tlb.walker.walkRequestOrigin_Requested::Data            0                       # Table walker requests started/completed, data/inst
system.cpu.dstage2_mmu.stage2_tlb.walker.walkRequestOrigin_Requested::Inst            0                       # Table walker requests started/completed, data/inst
system.cpu.dstage2_mmu.stage2_tlb.walker.walkRequestOrigin_Requested::total            0                       # Table walker requests started/completed, data/inst
system.cpu.dstage2_mmu.stage2_tlb.walker.walkRequestOrigin_Completed::Data            0                       # Table walker requests started/completed, data/inst
system.cpu.dstage2_mmu.stage2_tlb.walker.walkRequestOrigin_Completed::Inst            0                       # Table walker requests started/completed, data/inst
system.cpu.dstage2_mmu.stage2_tlb.walker.walkRequestOrigin_Completed::total            0                       # Table walker requests started/completed, data/inst
system.cpu.dstage2_mmu.stage2_tlb.walker.walkRequestOrigin::total            0                       # Table walker requests started/completed, data/inst
system.cpu.dstage2_mmu.stage2_tlb.inst_hits            0                       # ITB inst hits
system.cpu.dstage2_mmu.stage2_tlb.inst_misses            0                       # ITB inst misses
system.cpu.dstage2_mmu.stage2_tlb.read_hits            0                       # DTB read hits
system.cpu.dstage2_mmu.stage2_tlb.read_misses            0                       # DTB read misses
system.cpu.dstage2_mmu.stage2_tlb.write_hits            0                       # DTB write hits
system.cpu.dstage2_mmu.stage2_tlb.write_misses            0                       # DTB write misses
system.cpu.dstage2_mmu.stage2_tlb.flush_tlb            0                       # Number of times complete TLB was flushed
system.cpu.dstage2_mmu.stage2_tlb.flush_tlb_mva            0                       # Number of times TLB was flushed by MVA
system.cpu.dstage2_mmu.stage2_tlb.flush_tlb_mva_asid            0                       # Number of times TLB was flushed by MVA & ASID
system.cpu.dstage2_mmu.stage2_tlb.flush_tlb_asid            0                       # Number of times TLB was flushed by ASID
system.cpu.dstage2_mmu.stage2_tlb.flush_entries            0                       # Number of entries that have been flushed from TLB
system.cpu.dstage2_mmu.stage2_tlb.align_faults            0                       # Number of TLB faults due to alignment restrictions
system.cpu.dstage2_mmu.stage2_tlb.prefetch_faults            0                       # Number of TLB faults due to prefetch
system.cpu.dstage2_mmu.stage2_tlb.domain_faults            0                       # Number of TLB faults due to domain restrictions
system.cpu.dstage2_mmu.stage2_tlb.perms_faults            0                       # Number of TLB faults due to permissions restrictions
system.cpu.dstage2_mmu.stage2_tlb.read_accesses            0                       # DTB read accesses
system.cpu.dstage2_mmu.stage2_tlb.write_accesses            0                       # DTB write accesses
system.cpu.dstage2_mmu.stage2_tlb.inst_accesses            0                       # ITB inst accesses
system.cpu.dstage2_mmu.stage2_tlb.hits              0                       # DTB hits
system.cpu.dstage2_mmu.stage2_tlb.misses            0                       # DTB misses
system.cpu.dstage2_mmu.stage2_tlb.accesses            0                       # DTB accesses
system.cpu.dtb.walker.pwrStateResidencyTicks::UNDEFINED     30321675                       # Cumulative time (in ticks) in various power states
system.cpu.dtb.walker.walks                         0                       # Table walker walks requested
system.cpu.dtb.walker.walkRequestOrigin_Requested::Data            0                       # Table walker requests started/completed, data/inst
system.cpu.dtb.walker.walkRequestOrigin_Requested::Inst            0                       # Table walker requests started/completed, data/inst
system.cpu.dtb.walker.walkRequestOrigin_Requested::total            0                       # Table walker requests started/completed, data/inst
system.cpu.dtb.walker.walkRequestOrigin_Completed::Data            0                       # Table walker requests started/completed, data/inst
system.cpu.dtb.walker.walkRequestOrigin_Completed::Inst            0                       # Table walker requests started/completed, data/inst
system.cpu.dtb.walker.walkRequestOrigin_Completed::total            0                       # Table walker requests started/completed, data/inst
system.cpu.dtb.walker.walkRequestOrigin::total            0                       # Table walker requests started/completed, data/inst
system.cpu.dtb.inst_hits                            0                       # ITB inst hits
system.cpu.dtb.inst_misses                          0                       # ITB inst misses
system.cpu.dtb.read_hits                            0                       # DTB read hits
system.cpu.dtb.read_misses                          0                       # DTB read misses
system.cpu.dtb.write_hits                           0                       # DTB write hits
system.cpu.dtb.write_misses                         0                       # DTB write misses
system.cpu.dtb.flush_tlb                            0                       # Number of times complete TLB was flushed
system.cpu.dtb.flush_tlb_mva                        0                       # Number of times TLB was flushed by MVA
system.cpu.dtb.flush_tlb_mva_asid                   0                       # Number of times TLB was flushed by MVA & ASID
system.cpu.dtb.flush_tlb_asid                       0                       # Number of times TLB was flushed by ASID
system.cpu.dtb.flush_entries                        0                       # Number of entries that have been flushed from TLB
system.cpu.dtb.align_faults                         0                       # Number of TLB faults due to alignment restrictions
system.cpu.dtb.prefetch_faults                      0                       # Number of TLB faults due to prefetch
system.cpu.dtb.domain_faults                        0                       # Number of TLB faults due to domain restrictions
system.cpu.dtb.perms_faults                         0                       # Number of TLB faults due to permissions restrictions
system.cpu.dtb.read_accesses                        0                       # DTB read accesses
system.cpu.dtb.write_accesses                       0                       # DTB write accesses
system.cpu.dtb.inst_accesses                        0                       # ITB inst accesses
system.cpu.dtb.hits                                 0                       # DTB hits
system.cpu.dtb.misses                               0                       # DTB misses
system.cpu.dtb.accesses                             0                       # DTB accesses
system.cpu.istage2_mmu.stage2_tlb.walker.pwrStateResidencyTicks::UNDEFINED     30321675                       # Cumulative time (in ticks) in various power states
system.cpu.istage2_mmu.stage2_tlb.walker.walks            0                       # Table walker walks requested
system.cpu.istage2_mmu.stage2_tlb.walker.walkRequestOrigin_Requested::Data            0                       # Table walker requests started/completed, data/inst
system.cpu.istage2_mmu.stage2_tlb.walker.walkRequestOrigin_Requested::Inst            0                       # Table walker requests started/completed, data/inst
system.cpu.istage2_mmu.stage2_tlb.walker.walkRequestOrigin_Requested::total            0                       # Table walker requests started/completed, data/inst
system.cpu.istage2_mmu.stage2_tlb.walker.walkRequestOrigin_Completed::Data            0                       # Table walker requests started/completed, data/inst
system.cpu.istage2_mmu.stage2_tlb.walker.walkRequestOrigin_Completed::Inst            0                       # Table walker requests started/completed, data/inst
system.cpu.istage2_mmu.stage2_tlb.walker.walkRequestOrigin_Completed::total            0                       # Table walker requests started/completed, data/inst
system.cpu.istage2_mmu.stage2_tlb.walker.walkRequestOrigin::total            0                       # Table walker requests started/completed, data/inst
system.cpu.istage2_mmu.stage2_tlb.inst_hits            0                       # ITB inst hits
system.cpu.istage2_mmu.stage2_tlb.inst_misses            0                       # ITB inst misses
system.cpu.istage2_mmu.stage2_tlb.read_hits            0                       # DTB read hits
system.cpu.istage2_mmu.stage2_tlb.read_misses            0                       # DTB read misses
system.cpu.istage2_mmu.stage2_tlb.write_hits            0                       # DTB write hits
system.cpu.istage2_mmu.stage2_tlb.write_misses            0                       # DTB write misses
system.cpu.istage2_mmu.stage2_tlb.flush_tlb            0                       # Number of times complete TLB was flushed
system.cpu.istage2_mmu.stage2_tlb.flush_tlb_mva            0                       # Number of times TLB was flushed by MVA
system.cpu.istage2_mmu.stage2_tlb.flush_tlb_mva_asid            0                       # Number of times TLB was flushed by MVA & ASID
system.cpu.istage2_mmu.stage2_tlb.flush_tlb_asid            0                       # Number of times TLB was flushed by ASID
system.cpu.istage2_mmu.stage2_tlb.flush_entries            0                       # Number of entries that have been flushed from TLB
system.cpu.istage2_mmu.stage2_tlb.align_faults            0                       # Number of TLB faults due to alignment restrictions
system.cpu.istage2_mmu.stage2_tlb.prefetch_faults            0                       # Number of TLB faults due to prefetch
system.cpu.istage2_mmu.stage2_tlb.domain_faults            0                       # Number of TLB faults due to domain restrictions
system.cpu.istage2_mmu.stage2_tlb.perms_faults            0                       # Number of TLB faults due to permissions restrictions
system.cpu.istage2_mmu.stage2_tlb.read_accesses            0                       # DTB read accesses
system.cpu.istage2_mmu.stage2_tlb.write_accesses            0                       # DTB write accesses
system.cpu.istage2_mmu.stage2_tlb.inst_accesses            0                       # ITB inst accesses
system.cpu.istage2_mmu.stage2_tlb.hits              0                       # DTB hits
system.cpu.istage2_mmu.stage2_tlb.misses            0                       # DTB misses
system.cpu.istage2_mmu.stage2_tlb.accesses            0                       # DTB accesses
system.cpu.itb.walker.pwrStateResidencyTicks::UNDEFINED     30321675                       # Cumulative time (in ticks) in various power states
system.cpu.itb.walker.walks                         0                       # Table walker walks requested
system.cpu.itb.walker.walkRequestOrigin_Requested::Data            0                       # Table walker requests started/completed, data/inst
system.cpu.itb.walker.walkRequestOrigin_Requested::Inst            0                       # Table walker requests started/completed, data/inst
system.cpu.itb.walker.walkRequestOrigin_Requested::total            0                       # Table walker requests started/completed, data/inst
system.cpu.itb.walker.walkRequestOrigin_Completed::Data            0                       # Table walker requests started/completed, data/inst
system.cpu.itb.walker.walkRequestOrigin_Completed::Inst            0                       # Table walker requests started/completed, data/inst
system.cpu.itb.walker.walkRequestOrigin_Completed::total            0                       # Table walker requests started/completed, data/inst
system.cpu.itb.walker.walkRequestOrigin::total            0                       # Table walker requests started/completed, data/inst
system.cpu.itb.inst_hits                            0                       # ITB inst hits
system.cpu.itb.inst_misses                          0                       # ITB inst misses
system.cpu.itb.read_hits                            0                       # DTB read hits
system.cpu.itb.read_misses                          0                       # DTB read misses
system.cpu.itb.write_hits                           0                       # DTB write hits
system.cpu.itb.write_misses                         0                       # DTB write misses
system.cpu.itb.flush_tlb                            0                       # Number of times complete TLB was flushed
system.cpu.itb.flush_tlb_mva                        0                       # Number of times TLB was flushed by MVA
system.cpu.itb.flush_tlb_mva_asid                   0                       # Number of times TLB was flushed by MVA & ASID
system.cpu.itb.flush_tlb_asid                       0                       # Number of times TLB was flushed by ASID
system.cpu.itb.flush_entries                        0                       # Number of entries that have been flushed from TLB
system.cpu.itb.align_faults                         0                       # Number of TLB faults due to alignment restrictions
system.cpu.itb.prefetch_faults                      0                       # Number of TLB faults due to prefetch
system.cpu.itb.domain_faults                        0                       # Number of TLB faults due to domain restrictions
system.cpu.itb.perms_faults                         0                       # Number of TLB faults due to permissions restrictions
system.cpu.itb.read_accesses                        0                       # DTB read accesses
system.cpu.itb.write_accesses                       0                       # DTB write accesses
system.cpu.itb.inst_accesses                        0                       # ITB inst accesses
system.cpu.itb.hits                                 0                       # DTB hits
system.cpu.itb.misses                               0                       # DTB misses
system.cpu.itb.accesses                             0                       # DTB accesses
system.cpu.workload.numSyscalls                    11                       # Number of system calls
system.cpu.pwrStateResidencyTicks::ON        30321675                       # Cumulative time (in ticks) in various power states
system.cpu.numCycles                            69706                       # number of cpu cycles simulated
system.cpu.numWorkItemsStarted                      0                       # number of work items this cpu started
system.cpu.numWorkItemsCompleted                    0                       # number of work items this cpu completed
system.cpu.fetch.icacheStallCycles              15687                       # Number of cycles fetch is stalled on an Icache miss
system.cpu.fetch.Insts                          26665                       # Number of instructions fetch has processed
system.cpu.fetch.Branches                        4282                       # Number of branches that fetch encountered
system.cpu.fetch.predictedBranches               2050                       # Number of branches that fetch has predicted taken
system.cpu.fetch.Cycles                         15602                       # Number of cycles fetch has run and was not squashing or blocked
system.cpu.fetch.SquashCycles                    1570                       # Number of cycles fetch has spent squashing
system.cpu.fetch.MiscStallCycles                    6                       # Number of cycles fetch has spent waiting on interrupts, or bad addresses, or out of MSHRs
system.cpu.fetch.PendingTrapStallCycles            51                       # Number of stall cycles due to pending traps
system.cpu.fetch.IcacheWaitRetryStallCycles           22                       # Number of stall cycles due to full MSHR
system.cpu.fetch.CacheLines                      3970                       # Number of cache lines fetched
system.cpu.fetch.IcacheSquashes                   313                       # Number of outstanding Icache misses that were squashed
system.cpu.fetch.rateDist::samples              32153                       # Number of instructions fetched each cycle (Total)
system.cpu.fetch.rateDist::mean              0.916151                       # Number of instructions fetched each cycle (Total)
system.cpu.fetch.rateDist::stdev             1.316724                       # Number of instructions fetched each cycle (Total)
system.cpu.fetch.rateDist::underflows               0      0.00%      0.00% # Number of instructions fetched each cycle (Total)
system.cpu.fetch.rateDist::0                    20929     65.09%     65.09% # Number of instructions fetched each cycle (Total)
system.cpu.fetch.rateDist::1                     1395      4.34%     69.43% # Number of instructions fetched each cycle (Total)
system.cpu.fetch.rateDist::2                     1425      4.43%     73.86% # Number of instructions fetched each cycle (Total)
system.cpu.fetch.rateDist::3                     8404     26.14%    100.00% # Number of instructions fetched each cycle (Total)
system.cpu.fetch.rateDist::overflows                0      0.00%    100.00% # Number of instructions fetched each cycle (Total)
system.cpu.fetch.rateDist::min_value                0                       # Number of instructions fetched each cycle (Total)
system.cpu.fetch.rateDist::max_value                3                       # Number of instructions fetched each cycle (Total)
system.cpu.fetch.rateDist::total                32153                       # Number of instructions fetched each cycle (Total)
system.cpu.fetch.branchRate                  0.061429                       # Number of branch fetches per cycle
system.cpu.fetch.rate                        0.382535                       # Number of inst fetches per cycle
system.cpu.decode.IdleCycles                    14260                       # Number of cycles decode is idle
system.cpu.decode.BlockedCycles                  7194                       # Number of cycles decode is blocked
system.cpu.decode.RunCycles                      9798                       # Number of cycles decode is running
system.cpu.decode.UnblockCycles                   340                       # Number of cycles decode is unblocking
system.cpu.decode.SquashCycles                    561                       # Number of cycles decode is squashing
system.cpu.decode.BranchResolved                 1685                       # Number of times decode resolved a branch
system.cpu.decode.BranchMispred                   226                       # Number of times decode detected a branch misprediction
system.cpu.decode.DecodedInsts                  26446                       # Number of instructions handled by decode
system.cpu.decode.SquashedInsts                   514                       # Number of squashed instructions handled by decode
system.cpu.rename.SquashCycles                    561                       # Number of cycles rename is squashing
system.cpu.rename.IdleCycles                    14815                       # Number of cycles rename is idle
system.cpu.rename.BlockCycles                    2753                       # Number of cycles rename is blocking
system.cpu.rename.serializeStallCycles           2017                       # count of cycles rename stalled for serializing inst
system.cpu.rename.RunCycles                      9549                       # Number of cycles rename is running
system.cpu.rename.UnblockCycles                  2458                       # Number of cycles rename is unblocking
system.cpu.rename.RenamedInsts                  25538                       # Number of instructions processed by rename
system.cpu.rename.IQFullEvents                     50                       # Number of times rename has blocked due to IQ full
system.cpu.rename.LQFullEvents                    664                       # Number of times rename has blocked due to LQ full
system.cpu.rename.SQFullEvents                   1666                       # Number of times rename has blocked due to SQ full
system.cpu.rename.RenamedOperands               25796                       # Number of destination operands rename has renamed
system.cpu.rename.RenameLookups                117766                       # Number of register rename lookups that rename has made
system.cpu.rename.int_rename_lookups            30057                       # Number of integer rename lookups
system.cpu.rename.fp_rename_lookups                16                       # Number of floating rename lookups
system.cpu.rename.CommittedMaps                 18109                       # Number of HB maps that are committed
system.cpu.rename.UndoneMaps                     7686                       # Number of HB maps that are undone due to squashing
system.cpu.rename.serializingInsts                 35                       # count of serializing insts renamed
system.cpu.rename.tempSerializingInsts             35                       # count of temporary serializing insts renamed
system.cpu.rename.skidInsts                       400                       # count of insts added to the skid buffer
system.cpu.memDep0.insertedLoads                 6116                       # Number of loads inserted to the mem dependence unit.
system.cpu.memDep0.insertedStores                3370                       # Number of stores inserted to the mem dependence unit.
system.cpu.memDep0.conflictingLoads               966                       # Number of conflicting loads.
system.cpu.memDep0.conflictingStores              150                       # Number of conflicting stores.
system.cpu.iq.iqInstsAdded                      23947                       # Number of instructions added to the IQ (excludes non-spec)
system.cpu.iq.iqNonSpecInstsAdded                  51                       # Number of non-speculative instructions added to the IQ
system.cpu.iq.iqInstsIssued                     21871                       # Number of instructions issued
system.cpu.iq.iqSquashedInstsIssued               100                       # Number of squashed instructions issued
system.cpu.iq.iqSquashedInstsExamined            5612                       # Number of squashed instructions iterated over during squash; mainly for profiling
system.cpu.iq.iqSquashedOperandsExamined        13476                       # Number of squashed operands that are examined and possibly removed from graph
system.cpu.iq.iqSquashedNonSpecRemoved              4                       # Number of squashed non-spec instructions that were removed
system.cpu.iq.issued_per_cycle::samples         32153                       # Number of insts issued each cycle
system.cpu.iq.issued_per_cycle::mean         0.680216                       # Number of insts issued each cycle
system.cpu.iq.issued_per_cycle::stdev        1.052462                       # Number of insts issued each cycle
system.cpu.iq.issued_per_cycle::underflows            0      0.00%      0.00% # Number of insts issued each cycle
system.cpu.iq.issued_per_cycle::0               21010     65.34%     65.34% # Number of insts issued each cycle
system.cpu.iq.issued_per_cycle::1                3997     12.43%     77.78% # Number of insts issued each cycle
system.cpu.iq.issued_per_cycle::2                3564     11.08%     88.86% # Number of insts issued each cycle
system.cpu.iq.issued_per_cycle::3                3582     11.14%    100.00% # Number of insts issued each cycle
system.cpu.iq.issued_per_cycle::overflows            0      0.00%    100.00% # Number of insts issued each cycle
system.cpu.iq.issued_per_cycle::min_value            0                       # Number of insts issued each cycle
system.cpu.iq.issued_per_cycle::max_value            3                       # Number of insts issued each cycle
system.cpu.iq.issued_per_cycle::total           32153                       # Number of insts issued each cycle
system.cpu.iq.fu_full::No_OpClass                   0                       # attempts to use FU when none available
system.cpu.iq.fu_full::IntAlu                       0                       # attempts to use FU when none available
system.cpu.iq.fu_full::IntMult                      0                       # attempts to use FU when none available
system.cpu.iq.fu_full::IntDiv                       0                       # attempts to use FU when none available
system.cpu.iq.fu_full::FloatAdd                     0                       # attempts to use FU when none available
system.cpu.iq.fu_full::FloatCmp                     0                       # attempts to use FU when none available
system.cpu.iq.fu_full::FloatCvt                     0                       # attempts to use FU when none available
system.cpu.iq.fu_full::FloatMult                    0                       # attempts to use FU when none available
system.cpu.iq.fu_full::FloatMultAcc                 0                       # attempts to use FU when none available
system.cpu.iq.fu_full::FloatDiv                     0                       # attempts to use FU when none available
system.cpu.iq.fu_full::FloatMisc                    0                       # attempts to use FU when none available
system.cpu.iq.fu_full::FloatSqrt                    0                       # attempts to use FU when none available
system.cpu.iq.fu_full::SimdAdd                      0                       # attempts to use FU when none available
system.cpu.iq.fu_full::SimdAddAcc                   0                       # attempts to use FU when none available
system.cpu.iq.fu_full::SimdAlu                      0                       # attempts to use FU when none available
system.cpu.iq.fu_full::SimdCmp                      0                       # attempts to use FU when none available
system.cpu.iq.fu_full::SimdCvt                      0                       # attempts to use FU when none available
system.cpu.iq.fu_full::SimdMisc                     0                       # attempts to use FU when none available
system.cpu.iq.fu_full::SimdMult                     0                       # attempts to use FU when none available
system.cpu.iq.fu_full::SimdMultAcc                  0                       # attempts to use FU when none available
system.cpu.iq.fu_full::SimdShift                    0                       # attempts to use FU when none available
system.cpu.iq.fu_full::SimdShiftAcc                 0                       # attempts to use FU when none available
system.cpu.iq.fu_full::SimdSqrt                     0                       # attempts to use FU when none available
system.cpu.iq.fu_full::SimdFloatAdd                 0                       # attempts to use FU when none available
system.cpu.iq.fu_full::SimdFloatAlu                 0                       # attempts to use FU when none available
system.cpu.iq.fu_full::SimdFloatCmp                 0                       # attempts to use FU when none available
system.cpu.iq.fu_full::SimdFloatCvt                 0                       # attempts to use FU when none available
system.cpu.iq.fu_full::SimdFloatDiv                 0                       # attempts to use FU when none available
system.cpu.iq.fu_full::SimdFloatMisc                0                       # attempts to use FU when none available
system.cpu.iq.fu_full::SimdFloatMult                0                       # attempts to use FU when none available
system.cpu.iq.fu_full::SimdFloatMultAcc             0                       # attempts to use FU when none available
system.cpu.iq.fu_full::SimdFloatSqrt                0                       # attempts to use FU when none available
system.cpu.iq.fu_full::SimdAes                      0                       # attempts to use FU when none available
system.cpu.iq.fu_full::SimdAesMix                   0                       # attempts to use FU when none available
system.cpu.iq.fu_full::SimdSha1Hash                 0                       # attempts to use FU when none available
system.cpu.iq.fu_full::SimdSha1Hash2                0                       # attempts to use FU when none available
system.cpu.iq.fu_full::SimdSha256Hash               0                       # attempts to use FU when none available
system.cpu.iq.fu_full::SimdSha256Hash2              0                       # attempts to use FU when none available
system.cpu.iq.fu_full::SimdShaSigma2                0                       # attempts to use FU when none available
system.cpu.iq.fu_full::SimdShaSigma3                0                       # attempts to use FU when none available
system.cpu.iq.fu_full::MemRead                      0                       # attempts to use FU when none available
system.cpu.iq.fu_full::MemWrite                     0                       # attempts to use FU when none available
system.cpu.iq.fu_full::FloatMemRead                 0                       # attempts to use FU when none available
system.cpu.iq.fu_full::FloatMemWrite                0                       # attempts to use FU when none available
system.cpu.iq.fu_full::IprAccess                    0                       # attempts to use FU when none available
system.cpu.iq.fu_full::InstPrefetch                 0                       # attempts to use FU when none available
system.cpu.iq.FU_type_0::No_OpClass                 5      0.02%      0.02% # Type of FU issued
system.cpu.iq.FU_type_0::IntAlu                 12874     58.86%     58.89% # Type of FU issued
system.cpu.iq.FU_type_0::IntMult                    5      0.02%     58.91% # Type of FU issued
system.cpu.iq.FU_type_0::IntDiv                     0      0.00%     58.91% # Type of FU issued
system.cpu.iq.FU_type_0::FloatAdd                   0      0.00%     58.91% # Type of FU issued
system.cpu.iq.FU_type_0::FloatCmp                   0      0.00%     58.91% # Type of FU issued
system.cpu.iq.FU_type_0::FloatCvt                   0      0.00%     58.91% # Type of FU issued
system.cpu.iq.FU_type_0::FloatMult                  0      0.00%     58.91% # Type of FU issued
system.cpu.iq.FU_type_0::FloatMultAcc               0      0.00%     58.91% # Type of FU issued
system.cpu.iq.FU_type_0::FloatDiv                   0      0.00%     58.91% # Type of FU issued
system.cpu.iq.FU_type_0::FloatMisc                  0      0.00%     58.91% # Type of FU issued
system.cpu.iq.FU_type_0::FloatSqrt                  0      0.00%     58.91% # Type of FU issued
system.cpu.iq.FU_type_0::SimdAdd                    0      0.00%     58.91% # Type of FU issued
system.cpu.iq.FU_type_0::SimdAddAcc                 0      0.00%     58.91% # Type of FU issued
system.cpu.iq.FU_type_0::SimdAlu                    0      0.00%     58.91% # Type of FU issued
system.cpu.iq.FU_type_0::SimdCmp                    0      0.00%     58.91% # Type of FU issued
system.cpu.iq.FU_type_0::SimdCvt                    0      0.00%     58.91% # Type of FU issued
system.cpu.iq.FU_type_0::SimdMisc                   0      0.00%     58.91% # Type of FU issued
system.cpu.iq.FU_type_0::SimdMult                   0      0.00%     58.91% # Type of FU issued
system.cpu.iq.FU_type_0::SimdMultAcc                0      0.00%     58.91% # Type of FU issued
system.cpu.iq.FU_type_0::SimdShift                  0      0.00%     58.91% # Type of FU issued
system.cpu.iq.FU_type_0::SimdShiftAcc               0      0.00%     58.91% # Type of FU issued
system.cpu.iq.FU_type_0::SimdSqrt                   0      0.00%     58.91% # Type of FU issued
system.cpu.iq.FU_type_0::SimdFloatAdd               0      0.00%     58.91% # Type of FU issued
system.cpu.iq.FU_type_0::SimdFloatAlu               0      0.00%     58.91% # Type of FU issued
system.cpu.iq.FU_type_0::SimdFloatCmp               0      0.00%     58.91% # Type of FU issued
system.cpu.iq.FU_type_0::SimdFloatCvt               0      0.00%     58.91% # Type of FU issued
system.cpu.iq.FU_type_0::SimdFloatDiv               0      0.00%     58.91% # Type of FU issued
system.cpu.iq.FU_type_0::SimdFloatMisc              0      0.00%     58.91% # Type of FU issued
system.cpu.iq.FU_type_0::SimdFloatMult              0      0.00%     58.91% # Type of FU issued
system.cpu.iq.FU_type_0::SimdFloatMultAcc            0      0.00%     58.91% # Type of FU issued
system.cpu.iq.FU_type_0::SimdFloatSqrt              0      0.00%     58.91% # Type of FU issued
system.cpu.iq.FU_type_0::SimdAes                    0      0.00%     58.91% # Type of FU issued
system.cpu.iq.FU_type_0::SimdAesMix                 0      0.00%     58.91% # Type of FU issued
system.cpu.iq.FU_type_0::SimdSha1Hash               0      0.00%     58.91% # Type of FU issued
system.cpu.iq.FU_type_0::SimdSha1Hash2              0      0.00%     58.91% # Type of FU issued
system.cpu.iq.FU_type_0::SimdSha256Hash             0      0.00%     58.91% # Type of FU issued
system.cpu.iq.FU_type_0::SimdSha256Hash2            0      0.00%     58.91% # Type of FU issued
system.cpu.iq.FU_type_0::SimdShaSigma2              0      0.00%     58.91% # Type of FU issued
system.cpu.iq.FU_type_0::SimdShaSigma3              0      0.00%     58.91% # Type of FU issued
system.cpu.iq.FU_type_0::MemRead                 5813     26.58%     85.49% # Type of FU issued
system.cpu.iq.FU_type_0::MemWrite                3158     14.44%     99.93% # Type of FU issued
system.cpu.iq.FU_type_0::FloatMemRead               0      0.00%     99.93% # Type of FU issued
system.cpu.iq.FU_type_0::FloatMemWrite             16      0.07%    100.00% # Type of FU issued
system.cpu.iq.FU_type_0::IprAccess                  0      0.00%    100.00% # Type of FU issued
system.cpu.iq.FU_type_0::InstPrefetch               0      0.00%    100.00% # Type of FU issued
system.cpu.iq.FU_type_0::total                  21871                       # Type of FU issued
system.cpu.iq.rate                           0.313761                       # Inst issue rate
system.cpu.iq.fu_busy_cnt                           0                       # FU busy when requested
system.cpu.iq.fu_busy_rate                          0                       # FU busy rate (busy events/executed inst)
system.cpu.iq.int_inst_queue_reads              75963                       # Number of integer instruction queue reads
system.cpu.iq.int_inst_queue_writes             29655                       # Number of integer instruction queue writes
system.cpu.iq.int_inst_queue_wakeup_accesses        20864                       # Number of integer instruction queue wakeup accesses
system.cpu.iq.fp_inst_queue_reads                  32                       # Number of floating instruction queue reads
system.cpu.iq.fp_inst_queue_writes                 16                       # Number of floating instruction queue writes
system.cpu.iq.fp_inst_queue_wakeup_accesses           16                       # Number of floating instruction queue wakeup accesses
system.cpu.iq.vec_inst_queue_reads                  0                       # Number of vector instruction queue reads
system.cpu.iq.vec_inst_queue_writes                 0                       # Number of vector instruction queue writes
system.cpu.iq.vec_inst_queue_wakeup_accesses            0                       # Number of vector instruction queue wakeup accesses
system.cpu.iq.int_alu_accesses                  21850                       # Number of integer alu accesses
system.cpu.iq.fp_alu_accesses                      16                       # Number of floating point alu accesses
system.cpu.iq.vec_alu_accesses                      0                       # Number of vector alu accesses
system.cpu.iew.lsq.thread0.forwLoads              833                       # Number of loads that had data forwarded from stores
system.cpu.iew.lsq.thread0.invAddrLoads             0                       # Number of loads ignored due to an invalid address
system.cpu.iew.lsq.thread0.squashedLoads         1447                       # Number of loads squashed
system.cpu.iew.lsq.thread0.ignoredResponses            6                       # Number of memory responses ignored because the instruction is squashed
system.cpu.iew.lsq.thread0.memOrderViolation           62                       # Number of memory ordering violations
system.cpu.iew.lsq.thread0.squashedStores          528                       # Number of stores squashed
system.cpu.iew.lsq.thread0.invAddrSwpfs             0                       # Number of software prefetches ignored due to an invalid address
system.cpu.iew.lsq.thread0.blockedLoads             0                       # Number of blocked loads due to partial load-store forwarding
system.cpu.iew.lsq.thread0.rescheduledLoads           60                       # Number of loads that were rescheduled
system.cpu.iew.lsq.thread0.cacheBlocked            15                       # Number of times an access to memory failed due to the cache being blocked
system.cpu.iew.iewIdleCycles                        0                       # Number of cycles IEW is idle
system.cpu.iew.iewSquashCycles                    561                       # Number of cycles IEW is squashing
system.cpu.iew.iewBlockCycles                    2478                       # Number of cycles IEW is blocking
system.cpu.iew.iewUnblockCycles                   231                       # Number of cycles IEW is unblocking
system.cpu.iew.iewDispatchedInsts               23998                       # Number of instructions dispatched to IQ
system.cpu.iew.iewDispSquashedInsts               128                       # Number of squashed instructions skipped by dispatch
system.cpu.iew.iewDispLoadInsts                  6116                       # Number of dispatched load instructions
system.cpu.iew.iewDispStoreInsts                 3370                       # Number of dispatched store instructions
system.cpu.iew.iewDispNonSpecInsts                 33                       # Number of dispatched non-speculative instructions
system.cpu.iew.iewIQFullEvents                     10                       # Number of times the IQ has become full, causing a stall
system.cpu.iew.iewLSQFullEvents                   214                       # Number of times the LSQ has become full, causing a stall
system.cpu.iew.memOrderViolationEvents             62                       # Number of memory order violations
system.cpu.iew.predictedTakenIncorrect            116                       # Number of branches that were predicted taken incorrectly
system.cpu.iew.predictedNotTakenIncorrect          414                       # Number of branches that were predicted not taken incorrectly
system.cpu.iew.branchMispredicts                  530                       # Number of branch mispredicts detected at execute
system.cpu.iew.iewExecutedInsts                 21423                       # Number of executed instructions
system.cpu.iew.iewExecLoadInsts                  5647                       # Number of load instructions executed
system.cpu.iew.iewExecSquashedInsts               448                       # Number of squashed instructions skipped in execute
system.cpu.iew.exec_swp                             0                       # number of swp insts executed
system.cpu.iew.exec_nop                             0                       # number of nop insts executed
system.cpu.iew.exec_refs                         8776                       # number of memory reference insts executed
system.cpu.iew.exec_branches                     2970                       # Number of branches executed
system.cpu.iew.exec_stores                       3129                       # Number of stores executed
system.cpu.iew.exec_rate                     0.307334                       # Inst execution rate
system.cpu.iew.wb_sent                          21042                       # cumulative count of insts sent to commit
system.cpu.iew.wb_count                         20880                       # cumulative count of insts written-back
system.cpu.iew.wb_producers                     12425                       # num instructions producing a value
system.cpu.iew.wb_consumers                     18352                       # num instructions consuming a value
system.cpu.iew.wb_rate                       0.299544                       # insts written-back per cycle
system.cpu.iew.wb_fanout                     0.677038                       # average fanout of values written-back
system.cpu.commit.commitSquashedInsts            5616                       # The number of squashed insts skipped by commit
system.cpu.commit.commitNonSpecStalls              47                       # The number of times commit has been forced to stall to communicate backwards
system.cpu.commit.branchMispredicts               495                       # The number of times a branch was mispredicted
system.cpu.commit.committed_per_cycle::samples        30469                       # Number of insts commited each cycle
system.cpu.commit.committed_per_cycle::mean     0.603400                       # Number of insts commited each cycle
system.cpu.commit.committed_per_cycle::stdev     1.057359                       # Number of insts commited each cycle
system.cpu.commit.committed_per_cycle::underflows            0      0.00%      0.00% # Number of insts commited each cycle
system.cpu.commit.committed_per_cycle::0        21605     70.91%     70.91% # Number of insts commited each cycle
system.cpu.commit.committed_per_cycle::1         3208     10.53%     81.44% # Number of insts commited each cycle
system.cpu.commit.committed_per_cycle::2         1791      5.88%     87.31% # Number of insts commited each cycle
system.cpu.commit.committed_per_cycle::3         3865     12.69%    100.00% # Number of insts commited each cycle
system.cpu.commit.committed_per_cycle::overflows            0      0.00%    100.00% # Number of insts commited each cycle
system.cpu.commit.committed_per_cycle::min_value            0                       # Number of insts commited each cycle
system.cpu.commit.committed_per_cycle::max_value            3                       # Number of insts commited each cycle
system.cpu.commit.committed_per_cycle::total        30469                       # Number of insts commited each cycle
system.cpu.commit.committedInsts                16605                       # Number of instructions committed
system.cpu.commit.committedOps                  18385                       # Number of ops (including micro ops) committed
system.cpu.commit.swp_count                         0                       # Number of s/w prefetches committed
system.cpu.commit.refs                           7511                       # Number of memory references committed
system.cpu.commit.loads                          4669                       # Number of loads committed
system.cpu.commit.membars                          18                       # Number of memory barriers committed
system.cpu.commit.branches                       2510                       # Number of branches committed
system.cpu.commit.vec_insts                         0                       # Number of committed Vector instructions.
system.cpu.commit.fp_insts                         16                       # Number of committed floating point instructions.
system.cpu.commit.int_insts                     16459                       # Number of committed integer instructions.
system.cpu.commit.function_calls                  249                       # Number of function calls committed.
system.cpu.commit.op_class_0::No_OpClass            0      0.00%      0.00% # Class of committed instruction
system.cpu.commit.op_class_0::IntAlu            10870     59.12%     59.12% # Class of committed instruction
system.cpu.commit.op_class_0::IntMult               4      0.02%     59.15% # Class of committed instruction
system.cpu.commit.op_class_0::IntDiv                0      0.00%     59.15% # Class of committed instruction
system.cpu.commit.op_class_0::FloatAdd              0      0.00%     59.15% # Class of committed instruction
system.cpu.commit.op_class_0::FloatCmp              0      0.00%     59.15% # Class of committed instruction
system.cpu.commit.op_class_0::FloatCvt              0      0.00%     59.15% # Class of committed instruction
system.cpu.commit.op_class_0::FloatMult             0      0.00%     59.15% # Class of committed instruction
system.cpu.commit.op_class_0::FloatMultAcc            0      0.00%     59.15% # Class of committed instruction
system.cpu.commit.op_class_0::FloatDiv              0      0.00%     59.15% # Class of committed instruction
system.cpu.commit.op_class_0::FloatMisc             0      0.00%     59.15% # Class of committed instruction
[...]
system.cpu.l2cache.ReadExReq_accesses::total           64                       # number of ReadExReq accesses(hits+misses)
system.cpu.l2cache.ReadSharedReq_accesses::.cpu.inst          402                       # number of ReadSharedReq accesses(hits+misses)
system.cpu.l2cache.ReadSharedReq_accesses::.cpu.data          159                       # number of ReadSharedReq accesses(hits+misses)
system.cpu.l2cache.ReadSharedReq_accesses::total          561                       # number of ReadSharedReq accesses(hits+misses)
system.cpu.l2cache.demand_accesses::.cpu.inst          402                       # number of demand (read+write) accesses
system.cpu.l2cache.demand_accesses::.cpu.data          223                       # number of demand (read+write) accesses
system.cpu.l2cache.demand_accesses::total          625                       # number of demand (read+write) accesses
system.cpu.l2cache.overall_accesses::.cpu.inst          402                       # number of overall (read+write) accesses
system.cpu.l2cache.overall_accesses::.cpu.data          223                       # number of overall (read+write) accesses
system.cpu.l2cache.overall_accesses::total          625                       # number of overall (read+write) accesses
system.cpu.l2cache.ReadExReq_miss_rate::.cpu.data            1                       # miss rate for ReadExReq accesses
system.cpu.l2cache.ReadExReq_miss_rate::total            1                       # miss rate for ReadExReq accesses
system.cpu.l2cache.ReadSharedReq_miss_rate::.cpu.inst     0.925373                       # miss rate for ReadSharedReq accesses
system.cpu.l2cache.ReadSharedReq_miss_rate::.cpu.data     0.905660                       # miss rate for ReadSharedReq accesses
system.cpu.l2cache.ReadSharedReq_miss_rate::total     0.919786                       # miss rate for ReadSharedReq accesses
system.cpu.l2cache.demand_miss_rate::.cpu.inst     0.925373                       # miss rate for demand accesses
system.cpu.l2cache.demand_miss_rate::.cpu.data     0.932735                       # miss rate for demand accesses
system.cpu.l2cache.demand_miss_rate::total     0.928000                       # miss rate for demand accesses
system.cpu.l2cache.overall_miss_rate::.cpu.inst     0.925373                       # miss rate for overall accesses
system.cpu.l2cache.overall_miss_rate::.cpu.data     0.932735                       # miss rate for overall accesses
system.cpu.l2cache.overall_miss_rate::total     0.928000                       # miss rate for overall accesses
system.cpu.l2cache.ReadExReq_avg_miss_latency::.cpu.data 77273.671875                       # average ReadExReq miss latency
system.cpu.l2cache.ReadExReq_avg_miss_latency::total 77273.671875                       # average ReadExReq miss latency
system.cpu.l2cache.ReadSharedReq_avg_miss_latency::.cpu.inst 76818.427419                       # average ReadSharedReq miss latency
system.cpu.l2cache.ReadSharedReq_avg_miss_latency::.cpu.data 78538.645833                       # average ReadSharedReq miss latency
system.cpu.l2cache.ReadSharedReq_avg_miss_latency::total 77298.488372                       # average ReadSharedReq miss latency
system.cpu.l2cache.demand_avg_miss_latency::.cpu.inst 76818.427419                       # average overall miss latency
system.cpu.l2cache.demand_avg_miss_latency::.cpu.data 78149.423077                       # average overall miss latency
system.cpu.l2cache.demand_avg_miss_latency::total 77295.750000                       # average overall miss latency
system.cpu.l2cache.overall_avg_miss_latency::.cpu.inst 76818.427419                       # average overall miss latency
system.cpu.l2cache.overall_avg_miss_latency::.cpu.data 78149.423077                       # average overall miss latency
system.cpu.l2cache.overall_avg_miss_latency::total 77295.750000                       # average overall miss latency
system.cpu.l2cache.blocked_cycles::no_mshrs            0                       # number of cycles access was blocked
system.cpu.l2cache.blocked_cycles::no_targets            0                       # number of cycles access was blocked
system.cpu.l2cache.blocked::no_mshrs                0                       # number of cycles access was blocked
system.cpu.l2cache.blocked::no_targets              0                       # number of cycles access was blocked
system.cpu.l2cache.avg_blocked_cycles::no_mshrs          nan                       # average number of cycles each access was blocked
system.cpu.l2cache.avg_blocked_cycles::no_targets          nan                       # average number of cycles each access was blocked
system.cpu.l2cache.ReadSharedReq_mshr_hits::.cpu.inst            2                       # number of ReadSharedReq MSHR hits
system.cpu.l2cache.ReadSharedReq_mshr_hits::.cpu.data            7                       # number of ReadSharedReq MSHR hits
system.cpu.l2cache.ReadSharedReq_mshr_hits::total            9                       # number of ReadSharedReq MSHR hits
system.cpu.l2cache.demand_mshr_hits::.cpu.inst            2                       # number of demand (read+write) MSHR hits
system.cpu.l2cache.demand_mshr_hits::.cpu.data            7                       # number of demand (read+write) MSHR hits
system.cpu.l2cache.demand_mshr_hits::total            9                       # number of demand (read+write) MSHR hits
system.cpu.l2cache.overall_mshr_hits::.cpu.inst            2                       # number of overall MSHR hits
system.cpu.l2cache.overall_mshr_hits::.cpu.data            7                       # number of overall MSHR hits
system.cpu.l2cache.overall_mshr_hits::total            9                       # number of overall MSHR hits
system.cpu.l2cache.ReadExReq_mshr_misses::.cpu.data           64                       # number of ReadExReq MSHR misses
system.cpu.l2cache.ReadExReq_mshr_misses::total           64                       # number of ReadExReq MSHR misses
system.cpu.l2cache.ReadSharedReq_mshr_misses::.cpu.inst          370                       # number of ReadSharedReq MSHR misses
system.cpu.l2cache.ReadSharedReq_mshr_misses::.cpu.data          137                       # number of ReadSharedReq MSHR misses
system.cpu.l2cache.ReadSharedReq_mshr_misses::total          507                       # number of ReadSharedReq MSHR misses
system.cpu.l2cache.demand_mshr_misses::.cpu.inst          370                       # number of demand (read+write) MSHR misses
system.cpu.l2cache.demand_mshr_misses::.cpu.data          201                       # number of demand (read+write) MSHR misses
system.cpu.l2cache.demand_mshr_misses::total          571                       # number of demand (read+write) MSHR misses
system.cpu.l2cache.overall_mshr_misses::.cpu.inst          370                       # number of overall MSHR misses
system.cpu.l2cache.overall_mshr_misses::.cpu.data          201                       # number of overall MSHR misses
system.cpu.l2cache.overall_mshr_misses::total          571                       # number of overall MSHR misses
system.cpu.l2cache.ReadExReq_mshr_miss_latency::.cpu.data      4388715                       # number of ReadExReq MSHR miss cycles
system.cpu.l2cache.ReadExReq_mshr_miss_latency::total      4388715                       # number of ReadExReq MSHR miss cycles
system.cpu.l2cache.ReadSharedReq_mshr_miss_latency::.cpu.inst     25235655                       # number of ReadSharedReq MSHR miss cycles
system.cpu.l2cache.ReadSharedReq_mshr_miss_latency::.cpu.data      9642210                       # number of ReadSharedReq MSHR miss cycles
system.cpu.l2cache.ReadSharedReq_mshr_miss_latency::total     34877865                       # number of ReadSharedReq MSHR miss cycles
system.cpu.l2cache.demand_mshr_miss_latency::.cpu.inst     25235655                       # number of demand (read+write) MSHR miss cycles
system.cpu.l2cache.demand_mshr_miss_latency::.cpu.data     14030925                       # number of demand (read+write) MSHR miss cycles
system.cpu.l2cache.demand_mshr_miss_latency::total     39266580                       # number of demand (read+write) MSHR miss cycles
system.cpu.l2cache.overall_mshr_miss_latency::.cpu.inst     25235655                       # number of overall MSHR miss cycles
system.cpu.l2cache.overall_mshr_miss_latency::.cpu.data     14030925                       # number of overall MSHR miss cycles
system.cpu.l2cache.overall_mshr_miss_latency::total     39266580                       # number of overall MSHR miss cycles
system.cpu.l2cache.ReadExReq_mshr_miss_rate::.cpu.data            1                       # mshr miss rate for ReadExReq accesses
system.cpu.l2cache.ReadExReq_mshr_miss_rate::total            1                       # mshr miss rate for ReadExReq accesses
system.cpu.l2cache.ReadSharedReq_mshr_miss_rate::.cpu.inst     0.920398                       # mshr miss rate for ReadSharedReq accesses
system.cpu.l2cache.ReadSharedReq_mshr_miss_rate::.cpu.data     0.861635                       # mshr miss rate for ReadSharedReq accesses
system.cpu.l2cache.ReadSharedReq_mshr_miss_rate::total     0.903743                       # mshr miss rate for ReadSharedReq accesses
system.cpu.l2cache.demand_mshr_miss_rate::.cpu.inst     0.920398                       # mshr miss rate for demand accesses
system.cpu.l2cache.demand_mshr_miss_rate::.cpu.data     0.901345                       # mshr miss rate for demand accesses
system.cpu.l2cache.demand_mshr_miss_rate::total     0.913600                       # mshr miss rate for demand accesses
system.cpu.l2cache.overall_mshr_miss_rate::.cpu.inst     0.920398                       # mshr miss rate for overall accesses
system.cpu.l2cache.overall_mshr_miss_rate::.cpu.data     0.901345                       # mshr miss rate for overall accesses
system.cpu.l2cache.overall_mshr_miss_rate::total     0.913600                       # mshr miss rate for overall accesses
system.cpu.l2cache.ReadExReq_avg_mshr_miss_latency::.cpu.data 68573.671875                       # average ReadExReq mshr miss latency
system.cpu.l2cache.ReadExReq_avg_mshr_miss_latency::total 68573.671875                       # average ReadExReq mshr miss latency
system.cpu.l2cache.ReadSharedReq_avg_mshr_miss_latency::.cpu.inst 68204.472973                       # average ReadSharedReq mshr miss latency
system.cpu.l2cache.ReadSharedReq_avg_mshr_miss_latency::.cpu.data 70381.094891                       # average ReadSharedReq mshr miss latency
system.cpu.l2cache.ReadSharedReq_avg_mshr_miss_latency::total 68792.633136                       # average ReadSharedReq mshr miss latency
system.cpu.l2cache.demand_avg_mshr_miss_latency::.cpu.inst 68204.472973                       # average overall mshr miss latency
system.cpu.l2cache.demand_avg_mshr_miss_latency::.cpu.data 69805.597015                       # average overall mshr miss latency
system.cpu.l2cache.demand_avg_mshr_miss_latency::total 68768.091068                       # average overall mshr miss latency
system.cpu.l2cache.overall_avg_mshr_miss_latency::.cpu.inst 68204.472973                       # average overall mshr miss latency
system.cpu.l2cache.overall_avg_mshr_miss_latency::.cpu.data 69805.597015                       # average overall mshr miss latency
system.cpu.l2cache.overall_avg_mshr_miss_latency::total 68768.091068                       # average overall mshr miss latency
system.cpu.l2cache.replacements                     0                       # number of replacements
system.l2bus.snoop_filter.tot_requests            645                       # Total number of requests made to the snoop filter.
system.l2bus.snoop_filter.hit_single_requests           71                       # Number of requests hitting in the snoop filter with a single holder of the requested data.
system.l2bus.snoop_filter.hit_multi_requests            3                       # Number of requests hitting in the snoop filter with multiple (>1) holders of the requested data.
system.l2bus.snoop_filter.tot_snoops                0                       # Total number of snoops made to the snoop filter.
system.l2bus.snoop_filter.hit_single_snoops            0                       # Number of snoops hitting in the snoop filter with a single holder of the requested data.
system.l2bus.snoop_filter.hit_multi_snoops            0                       # Number of snoops hitting in the snoop filter with multiple (>1) holders of the requested data.
system.l2bus.pwrStateResidencyTicks::UNDEFINED     30321675                       # Cumulative time (in ticks) in various power states
system.l2bus.trans_dist::ReadResp                 560                       # Transaction distribution
system.l2bus.trans_dist::WritebackDirty             5                       # Transaction distribution
system.l2bus.trans_dist::CleanEvict                15                       # Transaction distribution
system.l2bus.trans_dist::ReadExReq                 64                       # Transaction distribution
system.l2bus.trans_dist::ReadExResp                64                       # Transaction distribution
system.l2bus.trans_dist::ReadSharedReq            561                       # Transaction distribution
system.l2bus.pkt_count_system.cpu.icache.mem_side::system.cpu.l2cache.cpu_side          809                       # Packet count per connected master and slave (bytes)
system.l2bus.pkt_count_system.cpu.dcache.mem_side::system.cpu.l2cache.cpu_side          460                       # Packet count per connected master and slave (bytes)
system.l2bus.pkt_count::total                    1269                       # Packet count per connected master and slave (bytes)
system.l2bus.pkt_size_system.cpu.icache.mem_side::system.cpu.l2cache.cpu_side        25664                       # Cumulative packet size per connected master and slave (bytes)
system.l2bus.pkt_size_system.cpu.dcache.mem_side::system.cpu.l2cache.cpu_side        14592                       # Cumulative packet size per connected master and slave (bytes)
system.l2bus.pkt_size::total                    40256                       # Cumulative packet size per connected master and slave (bytes)
system.l2bus.snoops                                 0                       # Total snoops (count)
system.l2bus.snoopTraffic                           0                       # Total snoop traffic (bytes)
system.l2bus.snoop_fanout::samples                625                       # Request fanout histogram
system.l2bus.snoop_fanout::mean              0.086400                       # Request fanout histogram
system.l2bus.snoop_fanout::stdev             0.281179                       # Request fanout histogram
system.l2bus.snoop_fanout::underflows               0      0.00%      0.00% # Request fanout histogram
system.l2bus.snoop_fanout::0                      571     91.36%     91.36% # Request fanout histogram
system.l2bus.snoop_fanout::1                       54      8.64%    100.00% # Request fanout histogram
system.l2bus.snoop_fanout::2                        0      0.00%    100.00% # Request fanout histogram
system.l2bus.snoop_fanout::overflows                0      0.00%    100.00% # Request fanout histogram
system.l2bus.snoop_fanout::min_value                0                       # Request fanout histogram
system.l2bus.snoop_fanout::max_value                1                       # Request fanout histogram
system.l2bus.snoop_fanout::total                  625                       # Request fanout histogram
system.l2bus.reqLayer0.occupancy               289275                       # Layer occupancy (ticks)
system.l2bus.reqLayer0.utilization                1.0                       # Layer utilization (%)
system.l2bus.respLayer0.occupancy              873043                       # Layer occupancy (ticks)
system.l2bus.respLayer0.utilization               2.9                       # Layer utilization (%)
system.l2bus.respLayer1.occupancy              488063                       # Layer occupancy (ticks)
system.l2bus.respLayer1.utilization               1.6                       # Layer utilization (%)
system.membus.snoop_filter.tot_requests           570                       # Total number of requests made to the snoop filter.
system.membus.snoop_filter.hit_single_requests            0                       # Number of requests hitting in the snoop filter with a single holder of the requested data.
system.membus.snoop_filter.hit_multi_requests            0                       # Number of requests hitting in the snoop filter with multiple (>1) holders of the requested data.
system.membus.snoop_filter.tot_snoops               0                       # Total number of snoops made to the snoop filter.
system.membus.snoop_filter.hit_single_snoops            0                       # Number of snoops hitting in the snoop filter with a single holder of the requested data.
system.membus.snoop_filter.hit_multi_snoops            0                       # Number of snoops hitting in the snoop filter with multiple (>1) holders of the requested data.
system.membus.pwrStateResidencyTicks::UNDEFINED     30321675                       # Cumulative time (in ticks) in various power states
system.membus.trans_dist::ReadResp                506                       # Transaction distribution
system.membus.trans_dist::ReadExReq                64                       # Transaction distribution
system.membus.trans_dist::ReadExResp               64                       # Transaction distribution
system.membus.trans_dist::ReadSharedReq           506                       # Transaction distribution
system.membus.pkt_count_system.cpu.l2cache.mem_side::system.mem_ctrl.port         1140                       # Packet count per connected master and slave (bytes)
system.membus.pkt_count::total                   1140                       # Packet count per connected master and slave (bytes)
system.membus.pkt_size_system.cpu.l2cache.mem_side::system.mem_ctrl.port        36480                       # Cumulative packet size per connected master and slave (bytes)
system.membus.pkt_size::total                   36480                       # Cumulative packet size per connected master and slave (bytes)
system.membus.snoops                                0                       # Total snoops (count)
system.membus.snoopTraffic                          0                       # Total snoop traffic (bytes)
system.membus.snoop_fanout::samples               570                       # Request fanout histogram
system.membus.snoop_fanout::mean                    0                       # Request fanout histogram
system.membus.snoop_fanout::stdev                   0                       # Request fanout histogram
system.membus.snoop_fanout::underflows              0      0.00%      0.00% # Request fanout histogram
system.membus.snoop_fanout::0                     570    100.00%    100.00% # Request fanout histogram
system.membus.snoop_fanout::1                       0      0.00%    100.00% # Request fanout histogram
system.membus.snoop_fanout::overflows               0      0.00%    100.00% # Request fanout histogram
system.membus.snoop_fanout::min_value               0                       # Request fanout histogram
system.membus.snoop_fanout::max_value               0                       # Request fanout histogram
system.membus.snoop_fanout::total                 570                       # Request fanout histogram
system.membus.reqLayer0.occupancy              247950                       # Layer occupancy (ticks)
system.membus.reqLayer0.utilization               0.8                       # Layer utilization (%)
system.membus.respLayer0.occupancy            1331400                       # Layer occupancy (ticks)
system.membus.respLayer0.utilization              4.4                       # Layer utilization (%)

---------- End Simulation Statistics   ----------
